/*---------------------------------------------------------------------------*\
| =========                 |                                                 |
| \\      /  F ield         | OpenFOAM: The Open Source CFD Toolbox           |
|  \\    /   O peration     | Version:  v2006                                 |
|   \\  /    A nd           | Website:  www.openfoam.com                      |
|    \\/     M anipulation  |                                                 |
\*---------------------------------------------------------------------------*/
Build  : _b45f8f6f58-20200629 OPENFOAM=2006
Arch   : "LSB;label=32;scalar=64"
Exec   : varviscoINS
Date   : Feb 03 2021
Time   : 17:19:31
Host   : angelo96-VirtualBox
PID    : 7292
I/O    : uncollated
Case   : /home/angelo96/OpenFOAM/OpenFOAM-v2006/applications/utilities/ITHACA-FV/tutorials/CFD/varviscoINS
nProcs : 1
trapFpe: Floating point exception trapping enabled (FOAM_SIGFPE).
fileModificationChecking : Monitoring run-time modified files using timeStampMaster (fileModificationSkew 5, maxFileModificationPolls 20)
allowSystemOperations : Allowing user-supplied system call operations

// * * * * * * * * * * * * * * * * * * * * * * * * * * * * * * * * * * * * * //
Create time

Create mesh for time = 0


PISO: Operating solver in PISO mode

Reading transportProperties

Reading field p

Reading field U

Reading/calculating face flux field phi


Starting time loop

Time = 0.005

Courant Number mean: 0 max: 0
smoothSolver:  Solving for Ux, Initial residual = 1, Final residual = 8.63139e-06, No Iterations 48
smoothSolver:  Solving for Uy, Initial residual = 0, Final residual = 0, No Iterations 0
DICPCG:  Solving for p, Initial residual = 1, Final residual = 0.0275813, No Iterations 22
time step continuity errors : sum local = 3.55517e-05, global = -3.82647e-20, cumulative = -3.82647e-20
DICPCG:  Solving for p, Initial residual = 0.456142, Final residual = 6.26585e-07, No Iterations 33
time step continuity errors : sum local = 1.64094e-09, global = 4.95408e-20, cumulative = 1.12761e-20
ExecutionTime = 0.03 s  ClockTime = 0 s

Time = 0.01

Courant Number mean: 0.0127651 max: 0.065679
smoothSolver:  Solving for Ux, Initial residual = 0.12981, Final residual = 8.69099e-06, No Iterations 46
smoothSolver:  Solving for Uy, Initial residual = 0.270755, Final residual = 9.61308e-06, No Iterations 48
DICPCG:  Solving for p, Initial residual = 0.580589, Final residual = 0.0224725, No Iterations 21
time step continuity errors : sum local = 3.68646e-05, global = 7.52165e-20, cumulative = 8.64927e-20
DICPCG:  Solving for p, Initial residual = 0.396006, Final residual = 9.12599e-07, No Iterations 32
time step continuity errors : sum local = 2.00123e-09, global = 1.35684e-20, cumulative = 1.00061e-19
ExecutionTime = 0.04 s  ClockTime = 0 s

Time = 0.015

Courant Number mean: 0.0187189 max: 0.0856094
smoothSolver:  Solving for Ux, Initial residual = 0.044133, Final residual = 9.91089e-06, No Iterations 39
smoothSolver:  Solving for Uy, Initial residual = 0.103101, Final residual = 9.13838e-06, No Iterations 40
DICPCG:  Solving for p, Initial residual = 0.440812, Final residual = 0.0116366, No Iterations 21
time step continuity errors : sum local = 1.34413e-05, global = 9.3343e-20, cumulative = 1.93404e-19
DICPCG:  Solving for p, Initial residual = 0.322986, Final residual = 6.02167e-07, No Iterations 32
time step continuity errors : sum local = 8.36309e-10, global = -9.509e-20, cumulative = 9.83141e-20
ExecutionTime = 0.04 s  ClockTime = 0 s

Time = 0.02

Courant Number mean: 0.0195165 max: 0.0822275
smoothSolver:  Solving for Ux, Initial residual = 0.0215242, Final residual = 9.18337e-06, No Iterations 37
smoothSolver:  Solving for Uy, Initial residual = 0.0579128, Final residual = 9.44158e-06, No Iterations 42
DICPCG:  Solving for p, Initial residual = 0.254743, Final residual = 0.00604631, No Iterations 21
time step continuity errors : sum local = 6.40125e-06, global = -3.87094e-20, cumulative = 5.96046e-20
DICPCG:  Solving for p, Initial residual = 0.20548, Final residual = 3.33588e-07, No Iterations 32
time step continuity errors : sum local = 3.77236e-10, global = -3.27325e-20, cumulative = 2.68721e-20
ExecutionTime = 0.05 s  ClockTime = 0 s

Time = 0.025

Courant Number mean: 0.0208648 max: 0.0850293
smoothSolver:  Solving for Ux, Initial residual = 0.0109881, Final residual = 9.2015e-06, No Iterations 32
smoothSolver:  Solving for Uy, Initial residual = 0.0264269, Final residual = 9.61135e-06, No Iterations 33
DICPCG:  Solving for p, Initial residual = 0.156597, Final residual = 0.00486697, No Iterations 18
time step continuity errors : sum local = 4.43472e-06, global = -6.10287e-20, cumulative = -3.41566e-20
DICPCG:  Solving for p, Initial residual = 0.126666, Final residual = 6.63962e-07, No Iterations 31
time step continuity errors : sum local = 6.53575e-10, global = -3.59433e-20, cumulative = -7.00999e-20
ExecutionTime = 0.06 s  ClockTime = 0 s

Time = 0.03

Courant Number mean: 0.0210887 max: 0.0842729
smoothSolver:  Solving for Ux, Initial residual = 0.00523827, Final residual = 9.9689e-06, No Iterations 27
smoothSolver:  Solving for Uy, Initial residual = 0.0169909, Final residual = 9.81342e-06, No Iterations 37
DICPCG:  Solving for p, Initial residual = 0.0951835, Final residual = 0.00439021, No Iterations 20
time step continuity errors : sum local = 4.0405e-06, global = -4.80876e-20, cumulative = -1.18188e-19
DICPCG:  Solving for p, Initial residual = 0.0872384, Final residual = 7.58838e-07, No Iterations 30
time step continuity errors : sum local = 6.60803e-10, global = -1.2354e-19, cumulative = -2.41727e-19
ExecutionTime = 0.06 s  ClockTime = 0 s

Time = 0.035

Courant Number mean: 0.0215236 max: 0.0849051
smoothSolver:  Solving for Ux, Initial residual = 0.00293769, Final residual = 8.45506e-06, No Iterations 24
smoothSolver:  Solving for Uy, Initial residual = 0.00833008, Final residual = 9.43232e-06, No Iterations 29
DICPCG:  Solving for p, Initial residual = 0.0473694, Final residual = 0.00099906, No Iterations 21
time step continuity errors : sum local = 8.73399e-07, global = -6.12815e-20, cumulative = -3.03009e-19
DICPCG:  Solving for p, Initial residual = 0.0408509, Final residual = 6.6201e-07, No Iterations 29
time step continuity errors : sum local = 5.89296e-10, global = 6.8832e-20, cumulative = -2.34177e-19
ExecutionTime = 0.07 s  ClockTime = 0 s

Time = 0.04

Courant Number mean: 0.0215918 max: 0.0847608
smoothSolver:  Solving for Ux, Initial residual = 0.00156268, Final residual = 8.78672e-06, No Iterations 22
smoothSolver:  Solving for Uy, Initial residual = 0.00509929, Final residual = 9.89838e-06, No Iterations 30
DICPCG:  Solving for p, Initial residual = 0.0237757, Final residual = 0.00069476, No Iterations 18
time step continuity errors : sum local = 6.05998e-07, global = -2.92094e-20, cumulative = -2.63386e-19
DICPCG:  Solving for p, Initial residual = 0.0210186, Final residual = 4.10968e-07, No Iterations 29
time step continuity errors : sum local = 3.50183e-10, global = 1.04333e-19, cumulative = -1.59053e-19
ExecutionTime = 0.07 s  ClockTime = 0 s

Time = 0.045

Courant Number mean: 0.0217266 max: 0.0849396
smoothSolver:  Solving for Ux, Initial residual = 0.000908683, Final residual = 8.44104e-06, No Iterations 20
smoothSolver:  Solving for Uy, Initial residual = 0.00217609, Final residual = 9.19211e-06, No Iterations 15
DICPCG:  Solving for p, Initial residual = 0.0129114, Final residual = 0.000263865, No Iterations 21
time step continuity errors : sum local = 2.2733e-07, global = 8.48833e-20, cumulative = -7.41696e-20
DICPCG:  Solving for p, Initial residual = 0.0114123, Final residual = 5.02211e-07, No Iterations 28
time step continuity errors : sum local = 4.33682e-10, global = -3.03238e-20, cumulative = -1.04493e-19
ExecutionTime = 0.08 s  ClockTime = 0 s

Time = 0.05

Courant Number mean: 0.021761 max: 0.0848985
smoothSolver:  Solving for Ux, Initial residual = 0.000514188, Final residual = 8.43199e-06, No Iterations 17
smoothSolver:  Solving for Uy, Initial residual = 0.00139906, Final residual = 9.13441e-06, No Iterations 23
DICPCG:  Solving for p, Initial residual = 0.0069437, Final residual = 0.000155706, No Iterations 21
time step continuity errors : sum local = 1.33844e-07, global = -3.17426e-20, cumulative = -1.36236e-19
DICPCG:  Solving for p, Initial residual = 0.00604277, Final residual = 4.01799e-07, No Iterations 28
time step continuity errors : sum local = 3.42934e-10, global = -1.21433e-19, cumulative = -2.57669e-19
ExecutionTime = 0.08 s  ClockTime = 0 s

Time = 0.055

Courant Number mean: 0.0218032 max: 0.0849527
smoothSolver:  Solving for Ux, Initial residual = 0.000275964, Final residual = 8.21319e-06, No Iterations 13
smoothSolver:  Solving for Uy, Initial residual = 0.000654794, Final residual = 9.81546e-06, No Iterations 11
DICPCG:  Solving for p, Initial residual = 0.00350406, Final residual = 7.20587e-05, No Iterations 18
time step continuity errors : sum local = 6.18014e-08, global = -1.59295e-20, cumulative = -2.73598e-19
DICPCG:  Solving for p, Initial residual = 0.00305229, Final residual = 4.81021e-07, No Iterations 27
time step continuity errors : sum local = 4.10674e-10, global = 8.10293e-20, cumulative = -1.92569e-19
ExecutionTime = 0.09 s  ClockTime = 0 s

Time = 0.06

Courant Number mean: 0.0218179 max: 0.0849458
smoothSolver:  Solving for Ux, Initial residual = 0.000148155, Final residual = 9.53707e-06, No Iterations 9
smoothSolver:  Solving for Uy, Initial residual = 0.000446453, Final residual = 9.66552e-06, No Iterations 17
DICPCG:  Solving for p, Initial residual = 0.00185836, Final residual = 4.14908e-05, No Iterations 18
time step continuity errors : sum local = 3.56598e-08, global = -9.98441e-21, cumulative = -2.02553e-19
DICPCG:  Solving for p, Initial residual = 0.00157823, Final residual = 8.87032e-07, No Iterations 26
time step continuity errors : sum local = 7.55483e-10, global = 1.07467e-20, cumulative = -1.91807e-19
ExecutionTime = 0.09 s  ClockTime = 0 s

Time = 0.065

Courant Number mean: 0.0218322 max: 0.0849592
smoothSolver:  Solving for Ux, Initial residual = 8.30519e-05, Final residual = 8.26663e-06, No Iterations 8
smoothSolver:  Solving for Uy, Initial residual = 0.000206784, Final residual = 9.37301e-06, No Iterations 9
DICPCG:  Solving for p, Initial residual = 0.000854616, Final residual = 2.13017e-05, No Iterations 18
time step continuity errors : sum local = 1.83139e-08, global = -2.07735e-20, cumulative = -2.1258e-19
DICPCG:  Solving for p, Initial residual = 0.000730654, Final residual = 7.1487e-07, No Iterations 25
time step continuity errors : sum local = 6.14717e-10, global = -2.77086e-20, cumulative = -2.40289e-19
ExecutionTime = 0.09 s  ClockTime = 0 s

Time = 0.07

Courant Number mean: 0.0218381 max: 0.0849587
smoothSolver:  Solving for Ux, Initial residual = 4.57882e-05, Final residual = 8.29196e-06, No Iterations 5
smoothSolver:  Solving for Uy, Initial residual = 0.000143782, Final residual = 8.67473e-06, No Iterations 12
DICPCG:  Solving for p, Initial residual = 0.00047786, Final residual = 1.6237e-05, No Iterations 11
time step continuity errors : sum local = 2.18991e-08, global = -6.12087e-20, cumulative = -3.01497e-19
DICPCG:  Solving for p, Initial residual = 0.000404028, Final residual = 9.57226e-07, No Iterations 23
time step continuity errors : sum local = 8.13735e-10, global = 1.00988e-19, cumulative = -2.0051e-19
ExecutionTime = 0.1 s  ClockTime = 0 s

Time = 0.075

Courant Number mean: 0.021843 max: 0.0849626
smoothSolver:  Solving for Ux, Initial residual = 2.74796e-05, Final residual = 7.90311e-06, No Iterations 4
smoothSolver:  Solving for Uy, Initial residual = 7.75927e-05, Final residual = 7.73594e-06, No Iterations 6
DICPCG:  Solving for p, Initial residual = 0.00026164, Final residual = 1.05725e-05, No Iterations 18
time step continuity errors : sum local = 9.10273e-09, global = -5.99805e-20, cumulative = -2.6049e-19
DICPCG:  Solving for p, Initial residual = 0.000223724, Final residual = 4.29015e-07, No Iterations 23
time step continuity errors : sum local = 3.64314e-10, global = 4.39928e-20, cumulative = -2.16498e-19
ExecutionTime = 0.1 s  ClockTime = 0 s

Time = 0.08

Courant Number mean: 0.0218451 max: 0.0849629
smoothSolver:  Solving for Ux, Initial residual = 1.89043e-05, Final residual = 9.79005e-06, No Iterations 2
smoothSolver:  Solving for Uy, Initial residual = 5.22915e-05, Final residual = 8.78567e-06, No Iterations 7
DICPCG:  Solving for p, Initial residual = 0.000122968, Final residual = 5.74358e-06, No Iterations 10
time step continuity errors : sum local = 7.2514e-09, global = -3.00167e-20, cumulative = -2.46514e-19
DICPCG:  Solving for p, Initial residual = 0.00010627, Final residual = 3.66653e-07, No Iterations 22
time step continuity errors : sum local = 3.11987e-10, global = 3.77777e-20, cumulative = -2.08737e-19
ExecutionTime = 0.1 s  ClockTime = 0 s

Time = 0.085

Courant Number mean: 0.0218467 max: 0.084964
smoothSolver:  Solving for Ux, Initial residual = 1.27408e-05, Final residual = 9.21119e-06, No Iterations 1
smoothSolver:  Solving for Uy, Initial residual = 3.49186e-05, Final residual = 9.12126e-06, No Iterations 4
DICPCG:  Solving for p, Initial residual = 0.000101432, Final residual = 1.98234e-06, No Iterations 20
time step continuity errors : sum local = 1.68169e-09, global = 3.35531e-20, cumulative = -1.75184e-19
DICPCG:  Solving for p, Initial residual = 9.57113e-05, Final residual = 4.99593e-07, No Iterations 21
time step continuity errors : sum local = 4.21953e-10, global = -2.25734e-20, cumulative = -1.97757e-19
ExecutionTime = 0.11 s  ClockTime = 0 s

Time = 0.09

Courant Number mean: 0.0218475 max: 0.0849643
smoothSolver:  Solving for Ux, Initial residual = 1.06531e-05, Final residual = 7.868e-06, No Iterations 1
smoothSolver:  Solving for Uy, Initial residual = 2.6018e-05, Final residual = 8.87613e-06, No Iterations 4
DICPCG:  Solving for p, Initial residual = 5.96343e-05, Final residual = 2.73768e-06, No Iterations 9
time step continuity errors : sum local = 2.68412e-09, global = 1.02904e-19, cumulative = -9.48531e-20
DICPCG:  Solving for p, Initial residual = 5.75522e-05, Final residual = 7.18391e-07, No Iterations 10
time step continuity errors : sum local = 7.61199e-10, global = -4.92973e-20, cumulative = -1.4415e-19
ExecutionTime = 0.11 s  ClockTime = 0 s

Time = 0.095

Courant Number mean: 0.0218482 max: 0.0849646
smoothSolver:  Solving for Ux, Initial residual = 8.62337e-06, Final residual = 8.62337e-06, No Iterations 0
smoothSolver:  Solving for Uy, Initial residual = 1.96553e-05, Final residual = 8.22526e-06, No Iterations 3
DICPCG:  Solving for p, Initial residual = 7.4247e-05, Final residual = 3.4488e-06, No Iterations 10
time step continuity errors : sum local = 4.07142e-09, global = 1.04524e-19, cumulative = -3.96266e-20
DICPCG:  Solving for p, Initial residual = 7.42667e-05, Final residual = 9.80384e-07, No Iterations 10
time step continuity errors : sum local = 9.27806e-10, global = -5.89747e-21, cumulative = -4.55241e-20
ExecutionTime = 0.11 s  ClockTime = 0 s

Time = 0.1

Courant Number mean: 0.0218486 max: 0.0849648
smoothSolver:  Solving for Ux, Initial residual = 8.20457e-06, Final residual = 8.20457e-06, No Iterations 0
smoothSolver:  Solving for Uy, Initial residual = 1.69121e-05, Final residual = 9.54211e-06, No Iterations 2
DICPCG:  Solving for p, Initial residual = 4.76768e-05, Final residual = 2.15419e-06, No Iterations 9
time step continuity errors : sum local = 2.23303e-09, global = -3.26108e-20, cumulative = -7.81348e-20
DICPCG:  Solving for p, Initial residual = 4.79778e-05, Final residual = 7.63864e-07, No Iterations 20
time step continuity errors : sum local = 6.60339e-10, global = 4.68515e-20, cumulative = -3.12833e-20
ExecutionTime = 0.12 s  ClockTime = 0 s

Time = 0.105

Courant Number mean: 0.0218488 max: 0.0849649
smoothSolver:  Solving for Ux, Initial residual = 6.72275e-06, Final residual = 6.72275e-06, No Iterations 0
smoothSolver:  Solving for Uy, Initial residual = 1.47526e-05, Final residual = 7.851e-06, No Iterations 2
DICPCG:  Solving for p, Initial residual = 4.27471e-05, Final residual = 8.24178e-07, No Iterations 17
time step continuity errors : sum local = 7.00484e-10, global = 1.22396e-20, cumulative = -1.90437e-20
DICPCG:  Solving for p, Initial residual = 4.28568e-05, Final residual = 8.67993e-07, No Iterations 17
time step continuity errors : sum local = 7.39163e-10, global = 4.92338e-21, cumulative = -1.41203e-20
ExecutionTime = 0.12 s  ClockTime = 0 s

Time = 0.11

Courant Number mean: 0.021849 max: 0.0849649
smoothSolver:  Solving for Ux, Initial residual = 6.1001e-06, Final residual = 6.1001e-06, No Iterations 0
smoothSolver:  Solving for Uy, Initial residual = 1.24444e-05, Final residual = 8.97301e-06, No Iterations 1
DICPCG:  Solving for p, Initial residual = 2.0728e-05, Final residual = 9.57305e-07, No Iterations 16
time step continuity errors : sum local = 8.57903e-10, global = -8.2014e-20, cumulative = -9.61343e-20
DICPCG:  Solving for p, Initial residual = 2.18048e-05, Final residual = 9.71687e-07, No Iterations 16
time step continuity errors : sum local = 8.62954e-10, global = -7.35966e-20, cumulative = -1.69731e-19
ExecutionTime = 0.12 s  ClockTime = 0 s

Time = 0.115

Courant Number mean: 0.0218492 max: 0.084965
smoothSolver:  Solving for Ux, Initial residual = 5.28621e-06, Final residual = 5.28621e-06, No Iterations 0
smoothSolver:  Solving for Uy, Initial residual = 1.13647e-05, Final residual = 8.35926e-06, No Iterations 1
DICPCG:  Solving for p, Initial residual = 1.94088e-05, Final residual = 9.72242e-07, No Iterations 10
time step continuity errors : sum local = 1.16619e-09, global = -2.17582e-20, cumulative = -1.91489e-19
DICPCG:  Solving for p, Initial residual = 2.00242e-05, Final residual = 7.37426e-07, No Iterations 9
time step continuity errors : sum local = 6.30872e-10, global = 1.86559e-20, cumulative = -1.72833e-19
ExecutionTime = 0.12 s  ClockTime = 0 s

Time = 0.12

Courant Number mean: 0.0218493 max: 0.084965
smoothSolver:  Solving for Ux, Initial residual = 4.74145e-06, Final residual = 4.74145e-06, No Iterations 0
smoothSolver:  Solving for Uy, Initial residual = 1.03182e-05, Final residual = 7.68381e-06, No Iterations 1
DICPCG:  Solving for p, Initial residual = 1.73954e-05, Final residual = 6.11618e-07, No Iterations 9
time step continuity errors : sum local = 6.17778e-10, global = 3.91964e-20, cumulative = -1.33637e-19
DICPCG:  Solving for p, Initial residual = 1.76168e-05, Final residual = 6.06768e-07, No Iterations 9
time step continuity errors : sum local = 6.32815e-10, global = 7.57353e-20, cumulative = -5.79013e-20
ExecutionTime = 0.13 s  ClockTime = 0 s

Time = 0.125

Courant Number mean: 0.0218494 max: 0.084965
smoothSolver:  Solving for Ux, Initial residual = 4.23816e-06, Final residual = 4.23816e-06, No Iterations 0
smoothSolver:  Solving for Uy, Initial residual = 9.19312e-06, Final residual = 9.19312e-06, No Iterations 0
DICPCG:  Solving for p, Initial residual = 1.49407e-06, Final residual = 7.93345e-07, No Iterations 3
time step continuity errors : sum local = 8.72182e-10, global = 3.65706e-20, cumulative = -2.13307e-20
DICPCG:  Solving for p, Initial residual = 1.2426e-06, Final residual = 9.2819e-07, No Iterations 1
time step continuity errors : sum local = 9.92783e-10, global = -2.69145e-20, cumulative = -4.82452e-20
ExecutionTime = 0.13 s  ClockTime = 0 s

Time = 0.13

Courant Number mean: 0.0218495 max: 0.084965
smoothSolver:  Solving for Ux, Initial residual = 3.77716e-06, Final residual = 3.77716e-06, No Iterations 0
smoothSolver:  Solving for Uy, Initial residual = 8.89792e-06, Final residual = 8.89792e-06, No Iterations 0
DICPCG:  Solving for p, Initial residual = 1.24925e-06, Final residual = 7.97796e-07, No Iterations 3
time step continuity errors : sum local = 9.56363e-10, global = 3.73753e-20, cumulative = -1.08698e-20
DICPCG:  Solving for p, Initial residual = 1.10468e-06, Final residual = 8.98981e-07, No Iterations 2
time step continuity errors : sum local = 1.08792e-09, global = -1.35525e-20, cumulative = -2.44224e-20
ExecutionTime = 0.13 s  ClockTime = 0 s

Time = 0.135

Courant Number mean: 0.0218495 max: 0.084965
smoothSolver:  Solving for Ux, Initial residual = 3.43737e-06, Final residual = 3.43737e-06, No Iterations 0
smoothSolver:  Solving for Uy, Initial residual = 8.90052e-06, Final residual = 8.90052e-06, No Iterations 0
DICPCG:  Solving for p, Initial residual = 1.62825e-06, Final residual = 7.28823e-07, No Iterations 2
time step continuity errors : sum local = 9.64335e-10, global = 6.18758e-20, cumulative = 3.74534e-20
DICPCG:  Solving for p, Initial residual = 1.24759e-06, Final residual = 6.16756e-07, No Iterations 12
time step continuity errors : sum local = 5.29208e-10, global = -1.77348e-20, cumulative = 1.97186e-20
ExecutionTime = 0.13 s  ClockTime = 0 s

Time = 0.14

Courant Number mean: 0.0218496 max: 0.084965
smoothSolver:  Solving for Ux, Initial residual = 3.1333e-06, Final residual = 3.1333e-06, No Iterations 0
smoothSolver:  Solving for Uy, Initial residual = 8.47636e-06, Final residual = 8.47636e-06, No Iterations 0
DICPCG:  Solving for p, Initial residual = 1.39745e-06, Final residual = 9.4431e-07, No Iterations 2
time step continuity errors : sum local = 9.50114e-10, global = -6.90332e-21, cumulative = 1.28153e-20
DICPCG:  Solving for p, Initial residual = 1.41414e-06, Final residual = 6.07165e-07, No Iterations 4
time step continuity errors : sum local = 7.37719e-10, global = -2.09958e-20, cumulative = -8.1805e-21
ExecutionTime = 0.14 s  ClockTime = 0 s

Time = 0.145

Courant Number mean: 0.0218496 max: 0.0849651
smoothSolver:  Solving for Ux, Initial residual = 2.88966e-06, Final residual = 2.88966e-06, No Iterations 0
smoothSolver:  Solving for Uy, Initial residual = 8.30463e-06, Final residual = 8.30463e-06, No Iterations 0
DICPCG:  Solving for p, Initial residual = 1.13072e-06, Final residual = 9.11718e-07, No Iterations 1
time step continuity errors : sum local = 1.06637e-09, global = -1.69777e-19, cumulative = -1.77958e-19
DICPCG:  Solving for p, Initial residual = 1.14768e-06, Final residual = 8.94883e-07, No Iterations 3
time step continuity errors : sum local = 1.01186e-09, global = -9.48889e-20, cumulative = -2.72847e-19
ExecutionTime = 0.14 s  ClockTime = 0 s

Time = 0.15

Courant Number mean: 0.0218497 max: 0.0849651
smoothSolver:  Solving for Ux, Initial residual = 2.78326e-06, Final residual = 2.78326e-06, No Iterations 0
smoothSolver:  Solving for Uy, Initial residual = 7.39932e-06, Final residual = 7.39932e-06, No Iterations 0
DICPCG:  Solving for p, Initial residual = 1.54769e-06, Final residual = 7.42957e-07, No Iterations 2
time step continuity errors : sum local = 8.60286e-10, global = 5.72383e-20, cumulative = -2.15608e-19
DICPCG:  Solving for p, Initial residual = 1.29663e-06, Final residual = 4.92401e-07, No Iterations 2
time step continuity errors : sum local = 6.79804e-10, global = 2.72427e-20, cumulative = -1.88366e-19
ExecutionTime = 0.14 s  ClockTime = 0 s

Time = 0.155

Courant Number mean: 0.0218497 max: 0.0849651
smoothSolver:  Solving for Ux, Initial residual = 2.57985e-06, Final residual = 2.57985e-06, No Iterations 0
smoothSolver:  Solving for Uy, Initial residual = 7.11371e-06, Final residual = 7.11371e-06, No Iterations 0
DICPCG:  Solving for p, Initial residual = 7.78072e-07, Final residual = 7.78072e-07, No Iterations 0
time step continuity errors : sum local = 9.22964e-10, global = 1.19972e-19, cumulative = -6.8394e-20
DICPCG:  Solving for p, Initial residual = 1.0777e-06, Final residual = 6.87465e-07, No Iterations 1
time step continuity errors : sum local = 8.28166e-10, global = 4.78362e-20, cumulative = -2.05578e-20
ExecutionTime = 0.14 s  ClockTime = 0 s

Time = 0.16

Courant Number mean: 0.0218498 max: 0.0849651
smoothSolver:  Solving for Ux, Initial residual = 2.42388e-06, Final residual = 2.42388e-06, No Iterations 0
smoothSolver:  Solving for Uy, Initial residual = 6.78102e-06, Final residual = 6.78102e-06, No Iterations 0
DICPCG:  Solving for p, Initial residual = 9.44565e-07, Final residual = 9.44565e-07, No Iterations 0
time step continuity errors : sum local = 1.04086e-09, global = 5.51418e-20, cumulative = 3.45841e-20
DICPCG:  Solving for p, Initial residual = 1.12756e-06, Final residual = 9.33743e-07, No Iterations 1
time step continuity errors : sum local = 1.02381e-09, global = 3.54907e-20, cumulative = 7.00748e-20
ExecutionTime = 0.15 s  ClockTime = 0 s

Time = 0.165

Courant Number mean: 0.0218498 max: 0.0849651
smoothSolver:  Solving for Ux, Initial residual = 2.26784e-06, Final residual = 2.26784e-06, No Iterations 0
smoothSolver:  Solving for Uy, Initial residual = 6.47896e-06, Final residual = 6.47896e-06, No Iterations 0
DICPCG:  Solving for p, Initial residual = 1.50439e-06, Final residual = 6.10948e-07, No Iterations 1
time step continuity errors : sum local = 7.42286e-10, global = 5.57559e-20, cumulative = 1.25831e-19
DICPCG:  Solving for p, Initial residual = 7.31678e-07, Final residual = 7.31678e-07, No Iterations 0
time step continuity errors : sum local = 8.40327e-10, global = -4.70527e-20, cumulative = 7.8778e-20
ExecutionTime = 0.15 s  ClockTime = 0 s

Time = 0.17

Courant Number mean: 0.0218499 max: 0.0849651
smoothSolver:  Solving for Ux, Initial residual = 2.13114e-06, Final residual = 2.13114e-06, No Iterations 0
smoothSolver:  Solving for Uy, Initial residual = 6.15009e-06, Final residual = 6.15009e-06, No Iterations 0
DICPCG:  Solving for p, Initial residual = 9.67572e-07, Final residual = 9.67572e-07, No Iterations 0
time step continuity errors : sum local = 1.03647e-09, global = 6.54862e-20, cumulative = 1.44264e-19
DICPCG:  Solving for p, Initial residual = 1.31185e-06, Final residual = 5.90174e-07, No Iterations 4
time step continuity errors : sum local = 6.18765e-10, global = 1.69724e-20, cumulative = 1.61237e-19
ExecutionTime = 0.15 s  ClockTime = 0 s

Time = 0.175

Courant Number mean: 0.0218499 max: 0.0849651
smoothSolver:  Solving for Ux, Initial residual = 1.85666e-06, Final residual = 1.85666e-06, No Iterations 0
smoothSolver:  Solving for Uy, Initial residual = 5.87391e-06, Final residual = 5.87391e-06, No Iterations 0
DICPCG:  Solving for p, Initial residual = 1.15337e-06, Final residual = 8.81779e-07, No Iterations 1
time step continuity errors : sum local = 8.25057e-10, global = -7.00602e-20, cumulative = 9.11765e-20
DICPCG:  Solving for p, Initial residual = 1.28596e-06, Final residual = 9.33669e-07, No Iterations 1
time step continuity errors : sum local = 8.73319e-10, global = -1.74912e-20, cumulative = 7.36852e-20
ExecutionTime = 0.15 s  ClockTime = 0 s

Time = 0.18

Courant Number mean: 0.0218499 max: 0.0849652
smoothSolver:  Solving for Ux, Initial residual = 1.82905e-06, Final residual = 1.82905e-06, No Iterations 0
smoothSolver:  Solving for Uy, Initial residual = 5.46849e-06, Final residual = 5.46849e-06, No Iterations 0
DICPCG:  Solving for p, Initial residual = 1.46747e-06, Final residual = 4.79301e-07, No Iterations 3
time step continuity errors : sum local = 5.41451e-10, global = 7.9367e-20, cumulative = 1.53052e-19
DICPCG:  Solving for p, Initial residual = 9.11098e-07, Final residual = 9.11098e-07, No Iterations 0
time step continuity errors : sum local = 9.16353e-10, global = -7.59047e-20, cumulative = 7.71475e-20
ExecutionTime = 0.16 s  ClockTime = 0 s

Time = 0.185

Courant Number mean: 0.02185 max: 0.0849652
smoothSolver:  Solving for Ux, Initial residual = 1.90241e-06, Final residual = 1.90241e-06, No Iterations 0
smoothSolver:  Solving for Uy, Initial residual = 4.7689e-06, Final residual = 4.7689e-06, No Iterations 0
DICPCG:  Solving for p, Initial residual = 1.5109e-06, Final residual = 7.75699e-07, No Iterations 3
time step continuity errors : sum local = 7.78344e-10, global = -2.24887e-20, cumulative = 5.46587e-20
DICPCG:  Solving for p, Initial residual = 1.4477e-06, Final residual = 5.41612e-07, No Iterations 2
time step continuity errors : sum local = 5.55061e-10, global = -2.26687e-20, cumulative = 3.199e-20
ExecutionTime = 0.16 s  ClockTime = 0 s

Time = 0.19

Courant Number mean: 0.02185 max: 0.0849652
smoothSolver:  Solving for Ux, Initial residual = 1.526e-06, Final residual = 1.526e-06, No Iterations 0
smoothSolver:  Solving for Uy, Initial residual = 5.09136e-06, Final residual = 5.09136e-06, No Iterations 0
DICPCG:  Solving for p, Initial residual = 9.74092e-07, Final residual = 9.74092e-07, No Iterations 0
time step continuity errors : sum local = 8.91545e-10, global = -1.61148e-20, cumulative = 1.58752e-20
DICPCG:  Solving for p, Initial residual = 1.33543e-06, Final residual = 6.67243e-07, No Iterations 3
time step continuity errors : sum local = 6.41994e-10, global = 1.76818e-20, cumulative = 3.3557e-20
ExecutionTime = 0.16 s  ClockTime = 0 s

Time = 0.195

Courant Number mean: 0.02185 max: 0.0849652
smoothSolver:  Solving for Ux, Initial residual = 1.69729e-06, Final residual = 1.69729e-06, No Iterations 0
smoothSolver:  Solving for Uy, Initial residual = 4.19049e-06, Final residual = 4.19049e-06, No Iterations 0
DICPCG:  Solving for p, Initial residual = 1.28656e-06, Final residual = 9.02921e-07, No Iterations 1
time step continuity errors : sum local = 8.24927e-10, global = 1.83806e-20, cumulative = 5.19376e-20
DICPCG:  Solving for p, Initial residual = 1.19904e-06, Final residual = 5.86635e-07, No Iterations 1
time step continuity errors : sum local = 5.63186e-10, global = 5.12455e-21, cumulative = 5.70622e-20
ExecutionTime = 0.16 s  ClockTime = 0 s

Time = 0.2

Courant Number mean: 0.02185 max: 0.0849652
smoothSolver:  Solving for Ux, Initial residual = 1.51762e-06, Final residual = 1.51762e-06, No Iterations 0
smoothSolver:  Solving for Uy, Initial residual = 4.10115e-06, Final residual = 4.10115e-06, No Iterations 0
DICPCG:  Solving for p, Initial residual = 9.08634e-07, Final residual = 9.08634e-07, No Iterations 0
time step continuity errors : sum local = 8.27902e-10, global = 5.27702e-20, cumulative = 1.09832e-19
DICPCG:  Solving for p, Initial residual = 1.22327e-06, Final residual = 7.88819e-07, No Iterations 2
time step continuity errors : sum local = 7.0234e-10, global = -7.70588e-20, cumulative = 3.27735e-20
ExecutionTime = 0.16 s  ClockTime = 0 s

Time = 0.205

Courant Number mean: 0.0218501 max: 0.0849652
smoothSolver:  Solving for Ux, Initial residual = 1.21066e-06, Final residual = 1.21066e-06, No Iterations 0
smoothSolver:  Solving for Uy, Initial residual = 4.25218e-06, Final residual = 4.25218e-06, No Iterations 0
DICPCG:  Solving for p, Initial residual = 1.29928e-06, Final residual = 7.41513e-07, No Iterations 1
time step continuity errors : sum local = 6.57794e-10, global = 1.81794e-20, cumulative = 5.0953e-20
DICPCG:  Solving for p, Initial residual = 1.171e-06, Final residual = 5.73464e-07, No Iterations 1
time step continuity errors : sum local = 5.09949e-10, global = -4.81115e-20, cumulative = 2.84149e-21
ExecutionTime = 0.17 s  ClockTime = 0 s

Time = 0.21

Courant Number mean: 0.0218501 max: 0.0849652
smoothSolver:  Solving for Ux, Initial residual = 1.19204e-06, Final residual = 1.19204e-06, No Iterations 0
smoothSolver:  Solving for Uy, Initial residual = 4.07524e-06, Final residual = 4.07524e-06, No Iterations 0
DICPCG:  Solving for p, Initial residual = 8.26598e-07, Final residual = 8.26598e-07, No Iterations 0
time step continuity errors : sum local = 7.25082e-10, global = 7.50789e-20, cumulative = 7.79204e-20
DICPCG:  Solving for p, Initial residual = 1.03461e-06, Final residual = 7.76359e-07, No Iterations 2
time step continuity errors : sum local = 6.8228e-10, global = -1.01813e-19, cumulative = -2.3893e-20
ExecutionTime = 0.17 s  ClockTime = 0 s

Time = 0.215

Courant Number mean: 0.0218501 max: 0.0849652
smoothSolver:  Solving for Ux, Initial residual = 1.25878e-06, Final residual = 1.25878e-06, No Iterations 0
smoothSolver:  Solving for Uy, Initial residual = 3.25225e-06, Final residual = 3.25225e-06, No Iterations 0
DICPCG:  Solving for p, Initial residual = 1.30113e-06, Final residual = 7.9873e-07, No Iterations 1
time step continuity errors : sum local = 7.10872e-10, global = 1.32942e-19, cumulative = 1.09049e-19
DICPCG:  Solving for p, Initial residual = 1.07443e-06, Final residual = 5.1972e-07, No Iterations 1
time step continuity errors : sum local = 4.74735e-10, global = 1.37643e-21, cumulative = 1.10425e-19
ExecutionTime = 0.17 s  ClockTime = 0 s

Time = 0.22

Courant Number mean: 0.0218501 max: 0.0849652
smoothSolver:  Solving for Ux, Initial residual = 1.21091e-06, Final residual = 1.21091e-06, No Iterations 0
smoothSolver:  Solving for Uy, Initial residual = 3.23251e-06, Final residual = 3.23251e-06, No Iterations 0
DICPCG:  Solving for p, Initial residual = 8.12853e-07, Final residual = 8.12853e-07, No Iterations 0
time step continuity errors : sum local = 7.23863e-10, global = -5.95147e-20, cumulative = 5.09106e-20
DICPCG:  Solving for p, Initial residual = 1.11932e-06, Final residual = 7.69784e-07, No Iterations 2
time step continuity errors : sum local = 6.74533e-10, global = -1.52784e-20, cumulative = 3.56323e-20
ExecutionTime = 0.17 s  ClockTime = 0 s

Time = 0.225

Courant Number mean: 0.0218502 max: 0.0849653
smoothSolver:  Solving for Ux, Initial residual = 9.78226e-07, Final residual = 9.78226e-07, No Iterations 0
smoothSolver:  Solving for Uy, Initial residual = 3.24045e-06, Final residual = 3.24045e-06, No Iterations 0
DICPCG:  Solving for p, Initial residual = 1.28402e-06, Final residual = 6.82905e-07, No Iterations 1
time step continuity errors : sum local = 5.90952e-10, global = -4.49669e-20, cumulative = -9.3346e-21
DICPCG:  Solving for p, Initial residual = 1.01725e-06, Final residual = 4.86346e-07, No Iterations 1
time step continuity errors : sum local = 4.19288e-10, global = 8.48727e-20, cumulative = 7.55381e-20
ExecutionTime = 0.17 s  ClockTime = 0 s

Time = 0.23

Courant Number mean: 0.0218502 max: 0.0849653
smoothSolver:  Solving for Ux, Initial residual = 9.48375e-07, Final residual = 9.48375e-07, No Iterations 0
smoothSolver:  Solving for Uy, Initial residual = 3.16311e-06, Final residual = 3.16311e-06, No Iterations 0
DICPCG:  Solving for p, Initial residual = 7.45143e-07, Final residual = 7.45143e-07, No Iterations 0
time step continuity errors : sum local = 6.33333e-10, global = 2.66815e-21, cumulative = 7.82063e-20
DICPCG:  Solving for p, Initial residual = 9.97725e-07, Final residual = 9.97725e-07, No Iterations 0
time step continuity errors : sum local = 8.45412e-10, global = -3.54166e-20, cumulative = 4.27897e-20
ExecutionTime = 0.17 s  ClockTime = 0 s

Time = 0.235

Courant Number mean: 0.0218502 max: 0.0849653
smoothSolver:  Solving for Ux, Initial residual = 9.03e-07, Final residual = 9.03e-07, No Iterations 0
smoothSolver:  Solving for Uy, Initial residual = 3.01195e-06, Final residual = 3.01195e-06, No Iterations 0
DICPCG:  Solving for p, Initial residual = 1.28422e-06, Final residual = 6.47449e-07, No Iterations 2
time step continuity errors : sum local = 5.65986e-10, global = 7.38719e-20, cumulative = 1.16662e-19
DICPCG:  Solving for p, Initial residual = 1.17874e-06, Final residual = 6.7559e-07, No Iterations 1
time step continuity errors : sum local = 5.83329e-10, global = -3.81482e-20, cumulative = 7.85133e-20
ExecutionTime = 0.17 s  ClockTime = 0 s

Time = 0.24

Courant Number mean: 0.0218502 max: 0.0849653
smoothSolver:  Solving for Ux, Initial residual = 9.24405e-07, Final residual = 9.24405e-07, No Iterations 0
smoothSolver:  Solving for Uy, Initial residual = 2.5647e-06, Final residual = 2.5647e-06, No Iterations 0
DICPCG:  Solving for p, Initial residual = 1.05693e-06, Final residual = 5.6165e-07, No Iterations 1
time step continuity errors : sum local = 4.85174e-10, global = 9.74194e-20, cumulative = 1.75933e-19
DICPCG:  Solving for p, Initial residual = 8.15925e-07, Final residual = 8.15925e-07, No Iterations 0
time step continuity errors : sum local = 7.00279e-10, global = 2.60886e-20, cumulative = 2.02021e-19
ExecutionTime = 0.17 s  ClockTime = 0 s

Time = 0.245

Courant Number mean: 0.0218502 max: 0.0849653
smoothSolver:  Solving for Ux, Initial residual = 8.7148e-07, Final residual = 8.7148e-07, No Iterations 0
smoothSolver:  Solving for Uy, Initial residual = 2.44316e-06, Final residual = 2.44316e-06, No Iterations 0
DICPCG:  Solving for p, Initial residual = 1.0906e-06, Final residual = 8.72507e-07, No Iterations 1
time step continuity errors : sum local = 7.44483e-10, global = -6.68733e-20, cumulative = 1.35148e-19
DICPCG:  Solving for p, Initial residual = 1.18411e-06, Final residual = 5.81146e-07, No Iterations 1
time step continuity errors : sum local = 4.95713e-10, global = 4.32199e-20, cumulative = 1.78368e-19
ExecutionTime = 0.18 s  ClockTime = 0 s

Time = 0.25

Courant Number mean: 0.0218502 max: 0.0849653
smoothSolver:  Solving for Ux, Initial residual = 7.89429e-07, Final residual = 7.89429e-07, No Iterations 0
smoothSolver:  Solving for Uy, Initial residual = 2.33467e-06, Final residual = 2.33467e-06, No Iterations 0
DICPCG:  Solving for p, Initial residual = 7.39867e-07, Final residual = 7.39867e-07, No Iterations 0
time step continuity errors : sum local = 6.29252e-10, global = -4.82597e-20, cumulative = 1.30108e-19
DICPCG:  Solving for p, Initial residual = 8.96502e-07, Final residual = 8.96502e-07, No Iterations 0
time step continuity errors : sum local = 7.62048e-10, global = 5.95147e-20, cumulative = 1.89623e-19
ExecutionTime = 0.18 s  ClockTime = 0 s

Time = 0.255

Courant Number mean: 0.0218503 max: 0.0849653
smoothSolver:  Solving for Ux, Initial residual = 7.47869e-07, Final residual = 7.47869e-07, No Iterations 0
smoothSolver:  Solving for Uy, Initial residual = 2.22106e-06, Final residual = 2.22106e-06, No Iterations 0
DICPCG:  Solving for p, Initial residual = 1.06449e-06, Final residual = 5.76436e-07, No Iterations 1
time step continuity errors : sum local = 4.92962e-10, global = 9.83617e-21, cumulative = 1.99459e-19
DICPCG:  Solving for p, Initial residual = 8.68342e-07, Final residual = 8.68342e-07, No Iterations 0
time step continuity errors : sum local = 7.41047e-10, global = 1.12592e-19, cumulative = 3.12051e-19
ExecutionTime = 0.18 s  ClockTime = 0 s

Time = 0.26

Courant Number mean: 0.0218503 max: 0.0849653
smoothSolver:  Solving for Ux, Initial residual = 6.81965e-07, Final residual = 6.81965e-07, No Iterations 0
smoothSolver:  Solving for Uy, Initial residual = 2.09735e-06, Final residual = 2.09735e-06, No Iterations 0
DICPCG:  Solving for p, Initial residual = 1.13833e-06, Final residual = 5.03719e-07, No Iterations 1
time step continuity errors : sum local = 4.36538e-10, global = -2.57816e-20, cumulative = 2.86269e-19
DICPCG:  Solving for p, Initial residual = 7.74317e-07, Final residual = 7.74317e-07, No Iterations 0
time step continuity errors : sum local = 6.67e-10, global = -1.51735e-19, cumulative = 1.34534e-19
ExecutionTime = 0.18 s  ClockTime = 0 s

Time = 0.265

Courant Number mean: 0.0218503 max: 0.0849653
smoothSolver:  Solving for Ux, Initial residual = 6.38216e-07, Final residual = 6.38216e-07, No Iterations 0
smoothSolver:  Solving for Uy, Initial residual = 2.00589e-06, Final residual = 2.00589e-06, No Iterations 0
DICPCG:  Solving for p, Initial residual = 1.04297e-06, Final residual = 5.25028e-07, No Iterations 1
time step continuity errors : sum local = 4.61777e-10, global = -6.40145e-20, cumulative = 7.05194e-20
DICPCG:  Solving for p, Initial residual = 7.24947e-07, Final residual = 7.24947e-07, No Iterations 0
time step continuity errors : sum local = 6.32299e-10, global = -1.68115e-19, cumulative = -9.75954e-20
ExecutionTime = 0.18 s  ClockTime = 0 s

Time = 0.27

Courant Number mean: 0.0218503 max: 0.0849653
smoothSolver:  Solving for Ux, Initial residual = 5.90213e-07, Final residual = 5.90213e-07, No Iterations 0
smoothSolver:  Solving for Uy, Initial residual = 1.89267e-06, Final residual = 1.89267e-06, No Iterations 0
DICPCG:  Solving for p, Initial residual = 9.1425e-07, Final residual = 9.1425e-07, No Iterations 0
time step continuity errors : sum local = 7.93184e-10, global = 2.8905e-20, cumulative = -6.86904e-20
DICPCG:  Solving for p, Initial residual = 1.03211e-06, Final residual = 5.87543e-07, No Iterations 1
time step continuity errors : sum local = 5.22931e-10, global = 6.09228e-20, cumulative = -7.76759e-21
ExecutionTime = 0.19 s  ClockTime = 0 s

Time = 0.275

Courant Number mean: 0.0218503 max: 0.0849653
smoothSolver:  Solving for Ux, Initial residual = 5.59353e-07, Final residual = 5.59353e-07, No Iterations 0
smoothSolver:  Solving for Uy, Initial residual = 1.791e-06, Final residual = 1.791e-06, No Iterations 0
DICPCG:  Solving for p, Initial residual = 9.33809e-07, Final residual = 9.33809e-07, No Iterations 0
time step continuity errors : sum local = 8.184e-10, global = 5.3289e-20, cumulative = 4.55214e-20
DICPCG:  Solving for p, Initial residual = 1.15845e-06, Final residual = 5.33421e-07, No Iterations 1
time step continuity errors : sum local = 4.8293e-10, global = -7.9367e-20, cumulative = -3.38456e-20
ExecutionTime = 0.2 s  ClockTime = 0 s

Time = 0.28

Courant Number mean: 0.0218503 max: 0.0849653
smoothSolver:  Solving for Ux, Initial residual = 5.24992e-07, Final residual = 5.24992e-07, No Iterations 0
smoothSolver:  Solving for Uy, Initial residual = 1.67335e-06, Final residual = 1.67335e-06, No Iterations 0
DICPCG:  Solving for p, Initial residual = 8.09739e-07, Final residual = 8.09739e-07, No Iterations 0
time step continuity errors : sum local = 7.18072e-10, global = 7.80223e-20, cumulative = 4.41767e-20
DICPCG:  Solving for p, Initial residual = 9.79413e-07, Final residual = 9.79413e-07, No Iterations 0
time step continuity errors : sum local = 8.62275e-10, global = -9.81817e-20, cumulative = -5.4005e-20
ExecutionTime = 0.2 s  ClockTime = 0 s

Time = 0.285

Courant Number mean: 0.0218503 max: 0.0849653
smoothSolver:  Solving for Ux, Initial residual = 4.96817e-07, Final residual = 4.96817e-07, No Iterations 0
smoothSolver:  Solving for Uy, Initial residual = 1.58932e-06, Final residual = 1.58932e-06, No Iterations 0
DICPCG:  Solving for p, Initial residual = 1.12982e-06, Final residual = 5.68357e-07, No Iterations 1
time step continuity errors : sum local = 5.1684e-10, global = -2.83333e-20, cumulative = -8.23383e-20
DICPCG:  Solving for p, Initial residual = 8.95467e-07, Final residual = 8.95467e-07, No Iterations 0
time step continuity errors : sum local = 7.9546e-10, global = 4.02764e-20, cumulative = -4.20618e-20
ExecutionTime = 0.2 s  ClockTime = 0 s

Time = 0.29

Courant Number mean: 0.0218503 max: 0.0849653
smoothSolver:  Solving for Ux, Initial residual = 4.70964e-07, Final residual = 4.70964e-07, No Iterations 0
smoothSolver:  Solving for Uy, Initial residual = 1.47262e-06, Final residual = 1.47262e-06, No Iterations 0
DICPCG:  Solving for p, Initial residual = 1.21018e-06, Final residual = 5.26295e-07, No Iterations 1
time step continuity errors : sum local = 4.83632e-10, global = -9.18607e-20, cumulative = -1.33923e-19
DICPCG:  Solving for p, Initial residual = 7.74555e-07, Final residual = 7.74555e-07, No Iterations 0
time step continuity errors : sum local = 6.94706e-10, global = 5.65394e-21, cumulative = -1.28269e-19
ExecutionTime = 0.2 s  ClockTime = 0 s

Time = 0.295

Courant Number mean: 0.0218503 max: 0.0849653
smoothSolver:  Solving for Ux, Initial residual = 4.45937e-07, Final residual = 4.45937e-07, No Iterations 0
smoothSolver:  Solving for Uy, Initial residual = 1.36767e-06, Final residual = 1.36767e-06, No Iterations 0
DICPCG:  Solving for p, Initial residual = 1.02155e-06, Final residual = 4.97668e-07, No Iterations 1
time step continuity errors : sum local = 4.61064e-10, global = 4.16634e-20, cumulative = -8.66052e-20
DICPCG:  Solving for p, Initial residual = 7.16189e-07, Final residual = 7.16189e-07, No Iterations 0
time step continuity errors : sum local = 6.46966e-10, global = -4.59198e-20, cumulative = -1.32525e-19
ExecutionTime = 0.2 s  ClockTime = 0 s

Time = 0.3

Courant Number mean: 0.0218503 max: 0.0849653
smoothSolver:  Solving for Ux, Initial residual = 4.24703e-07, Final residual = 4.24703e-07, No Iterations 0
smoothSolver:  Solving for Uy, Initial residual = 1.26915e-06, Final residual = 1.26915e-06, No Iterations 0
DICPCG:  Solving for p, Initial residual = 9.37554e-07, Final residual = 9.37554e-07, No Iterations 0
time step continuity errors : sum local = 8.35099e-10, global = -3.36801e-20, cumulative = -1.66205e-19
DICPCG:  Solving for p, Initial residual = 1.06769e-06, Final residual = 4.12221e-07, No Iterations 1
time step continuity errors : sum local = 3.90256e-10, global = 2.81638e-21, cumulative = -1.63389e-19
ExecutionTime = 0.21 s  ClockTime = 0 s

Time = 0.305

Courant Number mean: 0.0218504 max: 0.0849653
smoothSolver:  Solving for Ux, Initial residual = 4.01862e-07, Final residual = 4.01862e-07, No Iterations 0
smoothSolver:  Solving for Uy, Initial residual = 1.18712e-06, Final residual = 1.18712e-06, No Iterations 0
DICPCG:  Solving for p, Initial residual = 7.30024e-07, Final residual = 7.30024e-07, No Iterations 0
time step continuity errors : sum local = 6.60422e-10, global = 3.16261e-20, cumulative = -1.31763e-19
DICPCG:  Solving for p, Initial residual = 9.50934e-07, Final residual = 9.50934e-07, No Iterations 0
time step continuity errors : sum local = 8.48169e-10, global = 5.09279e-21, cumulative = -1.2667e-19
ExecutionTime = 0.21 s  ClockTime = 0 s

Time = 0.31

Courant Number mean: 0.0218504 max: 0.0849653
smoothSolver:  Solving for Ux, Initial residual = 3.79284e-07, Final residual = 3.79284e-07, No Iterations 0
smoothSolver:  Solving for Uy, Initial residual = 1.1246e-06, Final residual = 1.1246e-06, No Iterations 0
DICPCG:  Solving for p, Initial residual = 1.13421e-06, Final residual = 3.33179e-07, No Iterations 1
time step continuity errors : sum local = 3.25053e-10, global = 4.47551e-20, cumulative = -8.19147e-20
DICPCG:  Solving for p, Initial residual = 6.03701e-07, Final residual = 6.03701e-07, No Iterations 0
time step continuity errors : sum local = 5.54983e-10, global = -1.41084e-19, cumulative = -2.22999e-19
ExecutionTime = 0.21 s  ClockTime = 0 s

Time = 0.315

Courant Number mean: 0.0218504 max: 0.0849654
smoothSolver:  Solving for Ux, Initial residual = 3.57056e-07, Final residual = 3.57056e-07, No Iterations 0
smoothSolver:  Solving for Uy, Initial residual = 1.05176e-06, Final residual = 1.05176e-06, No Iterations 0
DICPCG:  Solving for p, Initial residual = 8.91122e-07, Final residual = 8.91122e-07, No Iterations 0
time step continuity errors : sum local = 7.99256e-10, global = -1.33005e-19, cumulative = -3.56004e-19
DICPCG:  Solving for p, Initial residual = 1.06958e-06, Final residual = 2.95577e-07, No Iterations 1
time step continuity errors : sum local = 2.95252e-10, global = -1.17611e-19, cumulative = -4.73615e-19
ExecutionTime = 0.21 s  ClockTime = 0 s

Time = 0.32

Courant Number mean: 0.0218504 max: 0.0849654
smoothSolver:  Solving for Ux, Initial residual = 3.32834e-07, Final residual = 3.32834e-07, No Iterations 0
smoothSolver:  Solving for Uy, Initial residual = 9.89218e-07, Final residual = 9.89218e-07, No Iterations 0
DICPCG:  Solving for p, Initial residual = 6.01277e-07, Final residual = 6.01277e-07, No Iterations 0
time step continuity errors : sum local = 5.5507e-10, global = -1.21232e-20, cumulative = -4.85738e-19
DICPCG:  Solving for p, Initial residual = 8.18394e-07, Final residual = 8.18394e-07, No Iterations 0
time step continuity errors : sum local = 7.39593e-10, global = 3.87729e-20, cumulative = -4.46965e-19
ExecutionTime = 0.22 s  ClockTime = 0 s

Time = 0.325

Courant Number mean: 0.0218504 max: 0.0849654
smoothSolver:  Solving for Ux, Initial residual = 3.1413e-07, Final residual = 3.1413e-07, No Iterations 0
smoothSolver:  Solving for Uy, Initial residual = 9.35297e-07, Final residual = 9.35297e-07, No Iterations 0
DICPCG:  Solving for p, Initial residual = 9.95596e-07, Final residual = 9.95596e-07, No Iterations 0
time step continuity errors : sum local = 8.90194e-10, global = -4.18223e-20, cumulative = -4.88787e-19
DICPCG:  Solving for p, Initial residual = 1.11295e-06, Final residual = 2.69442e-07, No Iterations 1
time step continuity errors : sum local = 2.75517e-10, global = 1.01538e-20, cumulative = -4.78633e-19
ExecutionTime = 0.22 s  ClockTime = 0 s

Time = 0.33

Courant Number mean: 0.0218504 max: 0.0849654
smoothSolver:  Solving for Ux, Initial residual = 2.93337e-07, Final residual = 2.93337e-07, No Iterations 0
smoothSolver:  Solving for Uy, Initial residual = 8.85391e-07, Final residual = 8.85391e-07, No Iterations 0
DICPCG:  Solving for p, Initial residual = 6.4775e-07, Final residual = 6.4775e-07, No Iterations 0
time step continuity errors : sum local = 5.97037e-10, global = -4.59515e-21, cumulative = -4.83228e-19
DICPCG:  Solving for p, Initial residual = 9.20454e-07, Final residual = 9.20454e-07, No Iterations 0
time step continuity errors : sum local = 8.28803e-10, global = 7.72494e-20, cumulative = -4.05979e-19
ExecutionTime = 0.22 s  ClockTime = 0 s

Time = 0.335

Courant Number mean: 0.0218504 max: 0.0849654
smoothSolver:  Solving for Ux, Initial residual = 2.75317e-07, Final residual = 2.75317e-07, No Iterations 0
smoothSolver:  Solving for Uy, Initial residual = 8.34832e-07, Final residual = 8.34832e-07, No Iterations 0
DICPCG:  Solving for p, Initial residual = 1.13951e-06, Final residual = 2.20933e-07, No Iterations 1
time step continuity errors : sum local = 2.36161e-10, global = 1.35282e-19, cumulative = -2.70697e-19
DICPCG:  Solving for p, Initial residual = 4.98461e-07, Final residual = 4.98461e-07, No Iterations 0
time step continuity errors : sum local = 4.72026e-10, global = 6.01393e-21, cumulative = -2.64683e-19
ExecutionTime = 0.22 s  ClockTime = 0 s

Time = 0.34

Courant Number mean: 0.0218504 max: 0.0849654
smoothSolver:  Solving for Ux, Initial residual = 2.56313e-07, Final residual = 2.56313e-07, No Iterations 0
smoothSolver:  Solving for Uy, Initial residual = 7.91433e-07, Final residual = 7.91433e-07, No Iterations 0
DICPCG:  Solving for p, Initial residual = 8.01106e-07, Final residual = 8.01106e-07, No Iterations 0
time step continuity errors : sum local = 7.29238e-10, global = 1.89418e-20, cumulative = -2.45742e-19
DICPCG:  Solving for p, Initial residual = 9.83006e-07, Final residual = 9.83006e-07, No Iterations 0
time step continuity errors : sum local = 8.83831e-10, global = 1.90159e-20, cumulative = -2.26726e-19
ExecutionTime = 0.22 s  ClockTime = 0 s

Time = 0.345

Courant Number mean: 0.0218504 max: 0.0849654
smoothSolver:  Solving for Ux, Initial residual = 2.42333e-07, Final residual = 2.42333e-07, No Iterations 0
smoothSolver:  Solving for Uy, Initial residual = 7.49343e-07, Final residual = 7.49343e-07, No Iterations 0
DICPCG:  Solving for p, Initial residual = 1.13341e-06, Final residual = 1.85345e-07, No Iterations 1
time step continuity errors : sum local = 2.07392e-10, global = -9.15219e-20, cumulative = -3.18248e-19
DICPCG:  Solving for p, Initial residual = 5.28582e-07, Final residual = 5.28582e-07, No Iterations 0
time step continuity errors : sum local = 4.99102e-10, global = -8.21622e-20, cumulative = -4.0041e-19
ExecutionTime = 0.23 s  ClockTime = 0 s

Time = 0.35

Courant Number mean: 0.0218504 max: 0.0849654
smoothSolver:  Solving for Ux, Initial residual = 2.25761e-07, Final residual = 2.25761e-07, No Iterations 0
smoothSolver:  Solving for Uy, Initial residual = 7.07823e-07, Final residual = 7.07823e-07, No Iterations 0
DICPCG:  Solving for p, Initial residual = 8.79789e-07, Final residual = 8.79789e-07, No Iterations 0
time step continuity errors : sum local = 7.97586e-10, global = 5.21455e-20, cumulative = -3.48264e-19
DICPCG:  Solving for p, Initial residual = 1.08669e-06, Final residual = 1.67189e-07, No Iterations 1
time step continuity errors : sum local = 1.92721e-10, global = -2.59933e-20, cumulative = -3.74258e-19
ExecutionTime = 0.23 s  ClockTime = 0 s

Time = 0.355

Courant Number mean: 0.0218504 max: 0.0849654
smoothSolver:  Solving for Ux, Initial residual = 2.11731e-07, Final residual = 2.11731e-07, No Iterations 0
smoothSolver:  Solving for Uy, Initial residual = 6.72685e-07, Final residual = 6.72685e-07, No Iterations 0
DICPCG:  Solving for p, Initial residual = 4.8614e-07, Final residual = 4.8614e-07, No Iterations 0
time step continuity errors : sum local = 4.63791e-10, global = 3.70895e-20, cumulative = -3.37168e-19
DICPCG:  Solving for p, Initial residual = 7.26817e-07, Final residual = 7.26817e-07, No Iterations 0
time step continuity errors : sum local = 6.68338e-10, global = 2.1684e-20, cumulative = -3.15484e-19
ExecutionTime = 0.23 s  ClockTime = 0 s

Time = 0.36

Courant Number mean: 0.0218504 max: 0.0849654
smoothSolver:  Solving for Ux, Initial residual = 1.98804e-07, Final residual = 1.98804e-07, No Iterations 0
smoothSolver:  Solving for Uy, Initial residual = 6.31226e-07, Final residual = 6.31226e-07, No Iterations 0
DICPCG:  Solving for p, Initial residual = 9.20293e-07, Final residual = 9.20293e-07, No Iterations 0
time step continuity errors : sum local = 8.32769e-10, global = 7.20084e-20, cumulative = -2.43476e-19
DICPCG:  Solving for p, Initial residual = 1.04362e-06, Final residual = 1.65607e-07, No Iterations 1
time step continuity errors : sum local = 1.91873e-10, global = -1.765e-19, cumulative = -4.19976e-19
ExecutionTime = 0.23 s  ClockTime = 0 s

Time = 0.365

Courant Number mean: 0.0218504 max: 0.0849654
smoothSolver:  Solving for Ux, Initial residual = 1.90185e-07, Final residual = 1.90185e-07, No Iterations 0
smoothSolver:  Solving for Uy, Initial residual = 5.96596e-07, Final residual = 5.96596e-07, No Iterations 0
DICPCG:  Solving for p, Initial residual = 5.66465e-07, Final residual = 5.66465e-07, No Iterations 0
time step continuity errors : sum local = 5.32554e-10, global = 1.06292e-19, cumulative = -3.13684e-19
DICPCG:  Solving for p, Initial residual = 8.41865e-07, Final residual = 8.41865e-07, No Iterations 0
time step continuity errors : sum local = 7.6661e-10, global = 6.43004e-20, cumulative = -2.49384e-19
ExecutionTime = 0.24 s  ClockTime = 0 s

Time = 0.37

Courant Number mean: 0.0218504 max: 0.0849654
smoothSolver:  Solving for Ux, Initial residual = 1.75933e-07, Final residual = 1.75933e-07, No Iterations 0
smoothSolver:  Solving for Uy, Initial residual = 5.58794e-07, Final residual = 5.58794e-07, No Iterations 0
DICPCG:  Solving for p, Initial residual = 1.06039e-06, Final residual = 1.61347e-07, No Iterations 1
time step continuity errors : sum local = 1.88453e-10, global = -1.64113e-21, cumulative = -2.51025e-19
DICPCG:  Solving for p, Initial residual = 4.56252e-07, Final residual = 4.56252e-07, No Iterations 0
time step continuity errors : sum local = 4.39087e-10, global = 1.41772e-20, cumulative = -2.36848e-19
ExecutionTime = 0.24 s  ClockTime = 0 s

Time = 0.375

Courant Number mean: 0.0218504 max: 0.0849654
smoothSolver:  Solving for Ux, Initial residual = 1.66816e-07, Final residual = 1.66816e-07, No Iterations 0
smoothSolver:  Solving for Uy, Initial residual = 5.24754e-07, Final residual = 5.24754e-07, No Iterations 0
DICPCG:  Solving for p, Initial residual = 7.57001e-07, Final residual = 7.57001e-07, No Iterations 0
time step continuity errors : sum local = 6.94687e-10, global = 3.48131e-20, cumulative = -2.02035e-19
DICPCG:  Solving for p, Initial residual = 9.35049e-07, Final residual = 9.35049e-07, No Iterations 0
time step continuity errors : sum local = 8.46007e-10, global = 1.16467e-21, cumulative = -2.0087e-19
ExecutionTime = 0.24 s  ClockTime = 0 s

Time = 0.38

Courant Number mean: 0.0218504 max: 0.0849654
smoothSolver:  Solving for Ux, Initial residual = 1.56997e-07, Final residual = 1.56997e-07, No Iterations 0
smoothSolver:  Solving for Uy, Initial residual = 4.94655e-07, Final residual = 4.94655e-07, No Iterations 0
DICPCG:  Solving for p, Initial residual = 1.0784e-06, Final residual = 1.70244e-07, No Iterations 1
time step continuity errors : sum local = 1.96371e-10, global = -7.83505e-21, cumulative = -2.08705e-19
DICPCG:  Solving for p, Initial residual = 5.38665e-07, Final residual = 5.38665e-07, No Iterations 0
time step continuity errors : sum local = 5.09486e-10, global = 7.68577e-20, cumulative = -1.31847e-19
ExecutionTime = 0.24 s  ClockTime = 0 s

Time = 0.385

Courant Number mean: 0.0218504 max: 0.0849654
smoothSolver:  Solving for Ux, Initial residual = 1.50445e-07, Final residual = 1.50445e-07, No Iterations 0
smoothSolver:  Solving for Uy, Initial residual = 4.61686e-07, Final residual = 4.61686e-07, No Iterations 0
DICPCG:  Solving for p, Initial residual = 8.8896e-07, Final residual = 8.8896e-07, No Iterations 0
time step continuity errors : sum local = 8.07194e-10, global = 6.44274e-20, cumulative = -6.74199e-20
DICPCG:  Solving for p, Initial residual = 1.09652e-06, Final residual = 1.76609e-07, No Iterations 1
time step continuity errors : sum local = 2.02155e-10, global = 9.17231e-20, cumulative = 2.43032e-20
ExecutionTime = 0.24 s  ClockTime = 0 s

Time = 0.39

Courant Number mean: 0.0218504 max: 0.0849654
smoothSolver:  Solving for Ux, Initial residual = 1.44136e-07, Final residual = 1.44136e-07, No Iterations 0
smoothSolver:  Solving for Uy, Initial residual = 4.38701e-07, Final residual = 4.38701e-07, No Iterations 0
DICPCG:  Solving for p, Initial residual = 5.28337e-07, Final residual = 5.28337e-07, No Iterations 0
time step continuity errors : sum local = 5.01083e-10, global = -4.85985e-21, cumulative = 1.94433e-20
DICPCG:  Solving for p, Initial residual = 7.83043e-07, Final residual = 7.83043e-07, No Iterations 0
time step continuity errors : sum local = 7.17551e-10, global = 3.22825e-20, cumulative = 5.17259e-20
ExecutionTime = 0.25 s  ClockTime = 0 s

Time = 0.395

Courant Number mean: 0.0218504 max: 0.0849654
smoothSolver:  Solving for Ux, Initial residual = 1.33096e-07, Final residual = 1.33096e-07, No Iterations 0
smoothSolver:  Solving for Uy, Initial residual = 4.04803e-07, Final residual = 4.04803e-07, No Iterations 0
DICPCG:  Solving for p, Initial residual = 9.84103e-07, Final residual = 9.84103e-07, No Iterations 0
time step continuity errors : sum local = 8.88428e-10, global = 8.4248e-20, cumulative = 1.35974e-19
DICPCG:  Solving for p, Initial residual = 1.1089e-06, Final residual = 1.74575e-07, No Iterations 1
time step continuity errors : sum local = 2.01168e-10, global = 7.43801e-20, cumulative = 2.10354e-19
ExecutionTime = 0.25 s  ClockTime = 0 s

Time = 0.4

Courant Number mean: 0.0218504 max: 0.0849654
smoothSolver:  Solving for Ux, Initial residual = 1.32631e-07, Final residual = 1.32631e-07, No Iterations 0
smoothSolver:  Solving for Uy, Initial residual = 3.88796e-07, Final residual = 3.88796e-07, No Iterations 0
DICPCG:  Solving for p, Initial residual = 6.1191e-07, Final residual = 6.1191e-07, No Iterations 0
time step continuity errors : sum local = 5.7285e-10, global = -4.01917e-20, cumulative = 1.70162e-19
DICPCG:  Solving for p, Initial residual = 9.13496e-07, Final residual = 9.13496e-07, No Iterations 0
time step continuity errors : sum local = 8.29163e-10, global = -8.23104e-20, cumulative = 8.78518e-20
ExecutionTime = 0.25 s  ClockTime = 0 s

Time = 0.405

Courant Number mean: 0.0218504 max: 0.0849654
smoothSolver:  Solving for Ux, Initial residual = 1.19305e-07, Final residual = 1.19305e-07, No Iterations 0
smoothSolver:  Solving for Uy, Initial residual = 3.56145e-07, Final residual = 3.56145e-07, No Iterations 0
DICPCG:  Solving for p, Initial residual = 1.1507e-06, Final residual = 1.66597e-07, No Iterations 1
time step continuity errors : sum local = 1.95077e-10, global = -4.83232e-20, cumulative = 3.95286e-20
DICPCG:  Solving for p, Initial residual = 4.92996e-07, Final residual = 4.92996e-07, No Iterations 0
time step continuity errors : sum local = 4.72477e-10, global = 1.30231e-21, cumulative = 4.08309e-20
ExecutionTime = 0.25 s  ClockTime = 0 s

Time = 0.41

Courant Number mean: 0.0218504 max: 0.0849654
smoothSolver:  Solving for Ux, Initial residual = 1.13776e-07, Final residual = 1.13776e-07, No Iterations 0
smoothSolver:  Solving for Uy, Initial residual = 3.38628e-07, Final residual = 3.38628e-07, No Iterations 0
DICPCG:  Solving for p, Initial residual = 8.21726e-07, Final residual = 8.21726e-07, No Iterations 0
time step continuity errors : sum local = 7.51859e-10, global = 5.28125e-20, cumulative = 9.36434e-20
DICPCG:  Solving for p, Initial residual = 1.01458e-06, Final residual = 1.52477e-07, No Iterations 1
time step continuity errors : sum local = 1.83914e-10, global = -2.52945e-20, cumulative = 6.83489e-20
ExecutionTime = 0.26 s  ClockTime = 0 s

Time = 0.415

Courant Number mean: 0.0218504 max: 0.0849654
smoothSolver:  Solving for Ux, Initial residual = 1.09975e-07, Final residual = 1.09975e-07, No Iterations 0
smoothSolver:  Solving for Uy, Initial residual = 3.1958e-07, Final residual = 3.1958e-07, No Iterations 0
DICPCG:  Solving for p, Initial residual = 4.81175e-07, Final residual = 4.81175e-07, No Iterations 0
time step continuity errors : sum local = 4.63268e-10, global = 5.25902e-20, cumulative = 1.20939e-19
DICPCG:  Solving for p, Initial residual = 7.15959e-07, Final residual = 7.15959e-07, No Iterations 0
time step continuity errors : sum local = 6.62806e-10, global = -1.01136e-19, cumulative = 1.98033e-20
ExecutionTime = 0.26 s  ClockTime = 0 s

Time = 0.42

Courant Number mean: 0.0218504 max: 0.0849654
smoothSolver:  Solving for Ux, Initial residual = 9.93884e-08, Final residual = 9.93884e-08, No Iterations 0
smoothSolver:  Solving for Uy, Initial residual = 2.94008e-07, Final residual = 2.94008e-07, No Iterations 0
DICPCG:  Solving for p, Initial residual = 8.98939e-07, Final residual = 8.98939e-07, No Iterations 0
time step continuity errors : sum local = 8.18318e-10, global = -3.6973e-20, cumulative = -1.71697e-20
DICPCG:  Solving for p, Initial residual = 1.01134e-06, Final residual = 1.34087e-07, No Iterations 1
time step continuity errors : sum local = 1.6895e-10, global = -1.07711e-19, cumulative = -1.2488e-19
ExecutionTime = 0.26 s  ClockTime = 0 s

Time = 0.425

Courant Number mean: 0.0218504 max: 0.0849654
smoothSolver:  Solving for Ux, Initial residual = 9.8628e-08, Final residual = 9.8628e-08, No Iterations 0
smoothSolver:  Solving for Uy, Initial residual = 2.97003e-07, Final residual = 2.97003e-07, No Iterations 0
DICPCG:  Solving for p, Initial residual = 5.26921e-07, Final residual = 5.26921e-07, No Iterations 0
time step continuity errors : sum local = 5.02811e-10, global = 9.13419e-20, cumulative = -3.35386e-20
DICPCG:  Solving for p, Initial residual = 7.97468e-07, Final residual = 7.97468e-07, No Iterations 0
time step continuity errors : sum local = 7.32744e-10, global = 4.75503e-20, cumulative = 1.40117e-20
ExecutionTime = 0.26 s  ClockTime = 0 s

Time = 0.43

Courant Number mean: 0.0218504 max: 0.0849654
smoothSolver:  Solving for Ux, Initial residual = 8.81152e-08, Final residual = 8.81152e-08, No Iterations 0
smoothSolver:  Solving for Uy, Initial residual = 2.64836e-07, Final residual = 2.64836e-07, No Iterations 0
DICPCG:  Solving for p, Initial residual = 1.00776e-06, Final residual = 1.23901e-07, No Iterations 1
time step continuity errors : sum local = 1.60878e-10, global = -1.49152e-19, cumulative = -1.3514e-19
DICPCG:  Solving for p, Initial residual = 4.15243e-07, Final residual = 4.15243e-07, No Iterations 0
time step continuity errors : sum local = 4.08484e-10, global = -2.45428e-20, cumulative = -1.59683e-19
ExecutionTime = 0.26 s  ClockTime = 0 s

Time = 0.435

Courant Number mean: 0.0218505 max: 0.0849654
smoothSolver:  Solving for Ux, Initial residual = 8.40561e-08, Final residual = 8.40561e-08, No Iterations 0
smoothSolver:  Solving for Uy, Initial residual = 2.513e-07, Final residual = 2.513e-07, No Iterations 0
DICPCG:  Solving for p, Initial residual = 7.01762e-07, Final residual = 7.01762e-07, No Iterations 0
time step continuity errors : sum local = 6.51991e-10, global = 2.56227e-21, cumulative = -1.57121e-19
DICPCG:  Solving for p, Initial residual = 8.68343e-07, Final residual = 8.68343e-07, No Iterations 0
time step continuity errors : sum local = 7.93564e-10, global = 4.45328e-20, cumulative = -1.12588e-19
ExecutionTime = 0.27 s  ClockTime = 0 s

Time = 0.44

Courant Number mean: 0.0218505 max: 0.0849654
smoothSolver:  Solving for Ux, Initial residual = 7.68168e-08, Final residual = 7.68168e-08, No Iterations 0
smoothSolver:  Solving for Uy, Initial residual = 2.33414e-07, Final residual = 2.33414e-07, No Iterations 0
DICPCG:  Solving for p, Initial residual = 9.98905e-07, Final residual = 9.98905e-07, No Iterations 0
time step continuity errors : sum local = 9.04526e-10, global = -1.70677e-20, cumulative = -1.29656e-19
DICPCG:  Solving for p, Initial residual = 1.07982e-06, Final residual = 1.12768e-07, No Iterations 1
time step continuity errors : sum local = 1.51698e-10, global = 1.3561e-19, cumulative = 5.95434e-21
ExecutionTime = 0.27 s  ClockTime = 0 s

Time = 0.445

Courant Number mean: 0.0218505 max: 0.0849654
smoothSolver:  Solving for Ux, Initial residual = 8.12793e-08, Final residual = 8.12793e-08, No Iterations 0
smoothSolver:  Solving for Uy, Initial residual = 2.49864e-07, Final residual = 2.49864e-07, No Iterations 0
DICPCG:  Solving for p, Initial residual = 5.77689e-07, Final residual = 5.77689e-07, No Iterations 0
time step continuity errors : sum local = 5.46826e-10, global = -1.43043e-20, cumulative = -8.34993e-21
DICPCG:  Solving for p, Initial residual = 8.87714e-07, Final residual = 8.87714e-07, No Iterations 0
time step continuity errors : sum local = 8.1031e-10, global = 5.63065e-20, cumulative = 4.79566e-20
ExecutionTime = 0.27 s  ClockTime = 0 s

Time = 0.45

Courant Number mean: 0.0218505 max: 0.0849654
smoothSolver:  Solving for Ux, Initial residual = 6.9096e-08, Final residual = 6.9096e-08, No Iterations 0
smoothSolver:  Solving for Uy, Initial residual = 2.14693e-07, Final residual = 2.14693e-07, No Iterations 0
DICPCG:  Solving for p, Initial residual = 1.12957e-06, Final residual = 1.11294e-07, No Iterations 1
time step continuity errors : sum local = 1.50612e-10, global = 2.81744e-20, cumulative = 7.6131e-20
DICPCG:  Solving for p, Initial residual = 4.43659e-07, Final residual = 4.43659e-07, No Iterations 0
time step continuity errors : sum local = 4.32979e-10, global = 4.68197e-20, cumulative = 1.22951e-19
ExecutionTime = 0.27 s  ClockTime = 0 s

Time = 0.455

Courant Number mean: 0.0218505 max: 0.0849654
smoothSolver:  Solving for Ux, Initial residual = 6.71662e-08, Final residual = 6.71662e-08, No Iterations 0
smoothSolver:  Solving for Uy, Initial residual = 2.04922e-07, Final residual = 2.04922e-07, No Iterations 0
DICPCG:  Solving for p, Initial residual = 7.62782e-07, Final residual = 7.62782e-07, No Iterations 0
time step continuity errors : sum local = 7.04141e-10, global = 6.1484e-20, cumulative = 1.84435e-19
DICPCG:  Solving for p, Initial residual = 9.48755e-07, Final residual = 9.48755e-07, No Iterations 0
time step continuity errors : sum local = 8.62194e-10, global = -1.16467e-20, cumulative = 1.72788e-19
ExecutionTime = 0.27 s  ClockTime = 0 s

Time = 0.46

Courant Number mean: 0.0218505 max: 0.0849654
smoothSolver:  Solving for Ux, Initial residual = 5.97308e-08, Final residual = 5.97308e-08, No Iterations 0
smoothSolver:  Solving for Uy, Initial residual = 1.86632e-07, Final residual = 1.86632e-07, No Iterations 0
DICPCG:  Solving for p, Initial residual = 1.09509e-06, Final residual = 1.01735e-07, No Iterations 1
time step continuity errors : sum local = 1.42352e-10, global = -1.35208e-20, cumulative = 1.59267e-19
DICPCG:  Solving for p, Initial residual = 4.81517e-07, Final residual = 4.81517e-07, No Iterations 0
time step continuity errors : sum local = 4.65128e-10, global = 2.17687e-20, cumulative = 1.81036e-19
ExecutionTime = 0.28 s  ClockTime = 0 s

Time = 0.465

Courant Number mean: 0.0218505 max: 0.0849654
smoothSolver:  Solving for Ux, Initial residual = 6.06782e-08, Final residual = 6.06782e-08, No Iterations 0
smoothSolver:  Solving for Uy, Initial residual = 1.90817e-07, Final residual = 1.90817e-07, No Iterations 0
DICPCG:  Solving for p, Initial residual = 8.32733e-07, Final residual = 8.32733e-07, No Iterations 0
time step continuity errors : sum local = 7.6362e-10, global = 4.56657e-20, cumulative = 2.26702e-19
DICPCG:  Solving for p, Initial residual = 1.03828e-06, Final residual = 1.01004e-07, No Iterations 1
time step continuity errors : sum local = 1.41625e-10, global = 2.46804e-20, cumulative = 2.51382e-19
ExecutionTime = 0.28 s  ClockTime = 0 s

Time = 0.47

Courant Number mean: 0.0218505 max: 0.0849654
smoothSolver:  Solving for Ux, Initial residual = 6.07796e-08, Final residual = 6.07796e-08, No Iterations 0
smoothSolver:  Solving for Uy, Initial residual = 1.82756e-07, Final residual = 1.82756e-07, No Iterations 0
DICPCG:  Solving for p, Initial residual = 4.42195e-07, Final residual = 4.42195e-07, No Iterations 0
time step continuity errors : sum local = 4.31373e-10, global = -1.45076e-19, cumulative = 1.06307e-19
DICPCG:  Solving for p, Initial residual = 6.7678e-07, Final residual = 6.7678e-07, No Iterations 0
time step continuity errors : sum local = 6.30679e-10, global = 1.14561e-20, cumulative = 1.17763e-19
ExecutionTime = 0.28 s  ClockTime = 0 s

Time = 0.475

Courant Number mean: 0.0218505 max: 0.0849654
smoothSolver:  Solving for Ux, Initial residual = 5.10955e-08, Final residual = 5.10955e-08, No Iterations 0
smoothSolver:  Solving for Uy, Initial residual = 1.58462e-07, Final residual = 1.58462e-07, No Iterations 0
DICPCG:  Solving for p, Initial residual = 8.58878e-07, Final residual = 8.58878e-07, No Iterations 0
time step continuity errors : sum local = 7.85398e-10, global = -7.97482e-20, cumulative = 3.80145e-20
DICPCG:  Solving for p, Initial residual = 9.70144e-07, Final residual = 9.70144e-07, No Iterations 0
time step continuity errors : sum local = 8.79953e-10, global = 6.73603e-20, cumulative = 1.05375e-19
ExecutionTime = 0.28 s  ClockTime = 0 s

Time = 0.48

Courant Number mean: 0.0218505 max: 0.0849654
smoothSolver:  Solving for Ux, Initial residual = 4.64625e-08, Final residual = 4.64625e-08, No Iterations 0
smoothSolver:  Solving for Uy, Initial residual = 1.47028e-07, Final residual = 1.47028e-07, No Iterations 0
DICPCG:  Solving for p, Initial residual = 1.05718e-06, Final residual = 1.00909e-07, No Iterations 1
time step continuity errors : sum local = 1.41127e-10, global = 7.49518e-20, cumulative = 1.80327e-19
DICPCG:  Solving for p, Initial residual = 5.00976e-07, Final residual = 5.00976e-07, No Iterations 0
time step continuity errors : sum local = 4.81152e-10, global = -1.14932e-19, cumulative = 6.53949e-20
ExecutionTime = 0.29 s  ClockTime = 0 s

Time = 0.485

Courant Number mean: 0.0218505 max: 0.0849654
smoothSolver:  Solving for Ux, Initial residual = 5.11814e-08, Final residual = 5.11814e-08, No Iterations 0
smoothSolver:  Solving for Uy, Initial residual = 1.57437e-07, Final residual = 1.57437e-07, No Iterations 0
DICPCG:  Solving for p, Initial residual = 8.66731e-07, Final residual = 8.66731e-07, No Iterations 0
time step continuity errors : sum local = 7.91976e-10, global = 4.99749e-21, cumulative = 7.03924e-20
DICPCG:  Solving for p, Initial residual = 1.0827e-06, Final residual = 1.02832e-07, No Iterations 1
time step continuity errors : sum local = 1.42491e-10, global = -1.73642e-20, cumulative = 5.30282e-20
ExecutionTime = 0.29 s  ClockTime = 0 s

Time = 0.49

Courant Number mean: 0.0218505 max: 0.0849654
smoothSolver:  Solving for Ux, Initial residual = 5.25762e-08, Final residual = 5.25762e-08, No Iterations 0
smoothSolver:  Solving for Uy, Initial residual = 1.54083e-07, Final residual = 1.54083e-07, No Iterations 0
DICPCG:  Solving for p, Initial residual = 4.63939e-07, Final residual = 4.63939e-07, No Iterations 0
time step continuity errors : sum local = 4.49115e-10, global = -1.0482e-20, cumulative = 4.25462e-20
DICPCG:  Solving for p, Initial residual = 7.10191e-07, Final residual = 7.10191e-07, No Iterations 0
time step continuity errors : sum local = 6.58326e-10, global = 1.36743e-19, cumulative = 1.79289e-19
ExecutionTime = 0.29 s  ClockTime = 0 s

Time = 0.495

Courant Number mean: 0.0218505 max: 0.0849654
smoothSolver:  Solving for Ux, Initial residual = 4.18726e-08, Final residual = 4.18726e-08, No Iterations 0
smoothSolver:  Solving for Uy, Initial residual = 1.25635e-07, Final residual = 1.25635e-07, No Iterations 0
DICPCG:  Solving for p, Initial residual = 9.01445e-07, Final residual = 9.01445e-07, No Iterations 0
time step continuity errors : sum local = 8.20821e-10, global = -9.92193e-20, cumulative = 8.00697e-20
DICPCG:  Solving for p, Initial residual = 1.01858e-06, Final residual = 9.58406e-08, No Iterations 1
time step continuity errors : sum local = 1.36104e-10, global = -1.22047e-19, cumulative = -4.19771e-20
ExecutionTime = 0.29 s  ClockTime = 0 s

Time = 0.5

Courant Number mean: 0.0218505 max: 0.0849654
smoothSolver:  Solving for Ux, Initial residual = 5.11522e-08, Final residual = 5.11522e-08, No Iterations 0
smoothSolver:  Solving for Uy, Initial residual = 1.49808e-07, Final residual = 1.49808e-07, No Iterations 0
DICPCG:  Solving for p, Initial residual = 5.05247e-07, Final residual = 5.05247e-07, No Iterations 0
time step continuity errors : sum local = 4.8407e-10, global = -2.24464e-21, cumulative = -4.42218e-20
DICPCG:  Solving for p, Initial residual = 7.78462e-07, Final residual = 7.78462e-07, No Iterations 0
time step continuity errors : sum local = 7.16264e-10, global = -4.11552e-20, cumulative = -8.5377e-20
ExecutionTime = 0.3 s  ClockTime = 0 s

Time = 0.505

Courant Number mean: 0.0218505 max: 0.0849654
smoothSolver:  Solving for Ux, Initial residual = 3.81551e-08, Final residual = 3.81551e-08, No Iterations 0
smoothSolver:  Solving for Uy, Initial residual = 1.161e-07, Final residual = 1.161e-07, No Iterations 0
DICPCG:  Solving for p, Initial residual = 9.90648e-07, Final residual = 9.90648e-07, No Iterations 0
time step continuity errors : sum local = 8.96563e-10, global = -6.43216e-20, cumulative = -1.49699e-19
DICPCG:  Solving for p, Initial residual = 1.12136e-06, Final residual = 1.01475e-07, No Iterations 1
time step continuity errors : sum local = 1.40666e-10, global = 6.58568e-21, cumulative = -1.43113e-19
ExecutionTime = 0.3 s  ClockTime = 0 s

Time = 0.51

Courant Number mean: 0.0218505 max: 0.0849654
smoothSolver:  Solving for Ux, Initial residual = 5.1069e-08, Final residual = 5.1069e-08, No Iterations 0
smoothSolver:  Solving for Uy, Initial residual = 1.47721e-07, Final residual = 1.47721e-07, No Iterations 0
DICPCG:  Solving for p, Initial residual = 5.51589e-07, Final residual = 5.51589e-07, No Iterations 0
time step continuity errors : sum local = 5.22971e-10, global = 5.6243e-20, cumulative = -8.68699e-20
DICPCG:  Solving for p, Initial residual = 8.52201e-07, Final residual = 8.52201e-07, No Iterations 0
time step continuity errors : sum local = 7.78412e-10, global = -9.39783e-20, cumulative = -1.80848e-19
ExecutionTime = 0.3 s  ClockTime = 0 s

Time = 0.515

Courant Number mean: 0.0218505 max: 0.0849654
smoothSolver:  Solving for Ux, Initial residual = 3.62191e-08, Final residual = 3.62191e-08, No Iterations 0
smoothSolver:  Solving for Uy, Initial residual = 1.05255e-07, Final residual = 1.05255e-07, No Iterations 0
DICPCG:  Solving for p, Initial residual = 1.08655e-06, Final residual = 9.65155e-08, No Iterations 1
time step continuity errors : sum local = 1.3614e-10, global = -3.28225e-21, cumulative = -1.8413e-19
DICPCG:  Solving for p, Initial residual = 4.266e-07, Final residual = 4.266e-07, No Iterations 0
time step continuity errors : sum local = 4.16686e-10, global = 1.02957e-19, cumulative = -8.11736e-20
ExecutionTime = 0.3 s  ClockTime = 0 s

Time = 0.52

Courant Number mean: 0.0218505 max: 0.0849654
smoothSolver:  Solving for Ux, Initial residual = 3.68923e-08, Final residual = 3.68923e-08, No Iterations 0
smoothSolver:  Solving for Uy, Initial residual = 1.08624e-07, Final residual = 1.08624e-07, No Iterations 0
DICPCG:  Solving for p, Initial residual = 7.35159e-07, Final residual = 7.35159e-07, No Iterations 0
time step continuity errors : sum local = 6.78924e-10, global = 8.35704e-20, cumulative = 2.3968e-21
DICPCG:  Solving for p, Initial residual = 9.14375e-07, Final residual = 9.14375e-07, No Iterations 0
time step continuity errors : sum local = 8.31237e-10, global = 1.15578e-19, cumulative = 1.17974e-19
ExecutionTime = 0.3 s  ClockTime = 0 s

Time = 0.525

Courant Number mean: 0.0218505 max: 0.0849654
smoothSolver:  Solving for Ux, Initial residual = 2.92596e-08, Final residual = 2.92596e-08, No Iterations 0
smoothSolver:  Solving for Uy, Initial residual = 8.81767e-08, Final residual = 8.81767e-08, No Iterations 0
DICPCG:  Solving for p, Initial residual = 1.05438e-06, Final residual = 9.70604e-08, No Iterations 1
time step continuity errors : sum local = 1.36509e-10, global = -4.09011e-20, cumulative = 7.70733e-20
DICPCG:  Solving for p, Initial residual = 4.6145e-07, Final residual = 4.6145e-07, No Iterations 0
time step continuity errors : sum local = 4.46048e-10, global = 3.63907e-20, cumulative = 1.13464e-19
ExecutionTime = 0.31 s  ClockTime = 0 s

Time = 0.53

Courant Number mean: 0.0218505 max: 0.0849654
smoothSolver:  Solving for Ux, Initial residual = 3.60837e-08, Final residual = 3.60837e-08, No Iterations 0
smoothSolver:  Solving for Uy, Initial residual = 1.04597e-07, Final residual = 1.04597e-07, No Iterations 0
DICPCG:  Solving for p, Initial residual = 7.97725e-07, Final residual = 7.97725e-07, No Iterations 0
time step continuity errors : sum local = 7.31753e-10, global = 9.99393e-20, cumulative = 2.13403e-19
DICPCG:  Solving for p, Initial residual = 9.95186e-07, Final residual = 9.95186e-07, No Iterations 0
time step continuity errors : sum local = 8.99575e-10, global = 1.33196e-20, cumulative = 2.26723e-19
ExecutionTime = 0.31 s  ClockTime = 0 s

Time = 0.535

Courant Number mean: 0.0218505 max: 0.0849654
smoothSolver:  Solving for Ux, Initial residual = 2.7301e-08, Final residual = 2.7301e-08, No Iterations 0
smoothSolver:  Solving for Uy, Initial residual = 7.97062e-08, Final residual = 7.97062e-08, No Iterations 0
DICPCG:  Solving for p, Initial residual = 1.14993e-06, Final residual = 9.84248e-08, No Iterations 1
time step continuity errors : sum local = 1.37466e-10, global = 1.47384e-19, cumulative = 3.74107e-19
DICPCG:  Solving for p, Initial residual = 5.08956e-07, Final residual = 5.08956e-07, No Iterations 0
time step continuity errors : sum local = 4.86378e-10, global = 5.9017e-20, cumulative = 4.33124e-19
ExecutionTime = 0.31 s  ClockTime = 0 s

Time = 0.54

Courant Number mean: 0.0218505 max: 0.0849654
smoothSolver:  Solving for Ux, Initial residual = 3.60503e-08, Final residual = 3.60503e-08, No Iterations 0
smoothSolver:  Solving for Uy, Initial residual = 1.0446e-07, Final residual = 1.0446e-07, No Iterations 0
DICPCG:  Solving for p, Initial residual = 8.81054e-07, Final residual = 8.81054e-07, No Iterations 0
time step continuity errors : sum local = 8.02617e-10, global = 3.21237e-20, cumulative = 4.65247e-19
DICPCG:  Solving for p, Initial residual = 1.0998e-06, Final residual = 9.84331e-08, No Iterations 1
time step continuity errors : sum local = 1.37447e-10, global = 1.16319e-19, cumulative = 5.81566e-19
ExecutionTime = 0.31 s  ClockTime = 0 s

Time = 0.545

Courant Number mean: 0.0218505 max: 0.0849654
[...]
time step continuity errors : sum local = 7.59471e-10, global = -3.12238e-20, cumulative = 5.04827e-18
DICPCG:  Solving for p, Initial residual = 1.01148e-06, Final residual = 6.37594e-08, No Iterations 1
time step continuity errors : sum local = 5.41847e-11, global = 1.0355e-20, cumulative = 5.05862e-18
ExecutionTime = 4.69 s  ClockTime = 4 s

Time = 9.87

Courant Number mean: 0.0218505 max: 0.0849654
smoothSolver:  Solving for Ux, Initial residual = 3.82555e-08, Final residual = 3.82555e-08, No Iterations 0
smoothSolver:  Solving for Uy, Initial residual = 1.09632e-07, Final residual = 1.09632e-07, No Iterations 0
DICPCG:  Solving for p, Initial residual = 4.89284e-07, Final residual = 4.89284e-07, No Iterations 0
time step continuity errors : sum local = 4.15836e-10, global = -1.9937e-20, cumulative = 5.03869e-18
DICPCG:  Solving for p, Initial residual = 7.60022e-07, Final residual = 7.60022e-07, No Iterations 0
time step continuity errors : sum local = 6.45931e-10, global = -2.84285e-20, cumulative = 5.01026e-18
ExecutionTime = 4.69 s  ClockTime = 4 s

Time = 9.875

Courant Number mean: 0.0218505 max: 0.0849654
smoothSolver:  Solving for Ux, Initial residual = 1.81688e-08, Final residual = 1.81688e-08, No Iterations 0
smoothSolver:  Solving for Uy, Initial residual = 5.18679e-08, Final residual = 5.18679e-08, No Iterations 0
DICPCG:  Solving for p, Initial residual = 9.70135e-07, Final residual = 9.70135e-07, No Iterations 0
time step continuity errors : sum local = 8.24501e-10, global = -5.47924e-20, cumulative = 4.95546e-18
DICPCG:  Solving for p, Initial residual = 1.09945e-06, Final residual = 6.92633e-08, No Iterations 1
time step continuity errors : sum local = 5.89358e-11, global = 4.24046e-20, cumulative = 4.99787e-18
ExecutionTime = 4.69 s  ClockTime = 4 s

Time = 9.88

Courant Number mean: 0.0218505 max: 0.0849654
smoothSolver:  Solving for Ux, Initial residual = 4.17651e-08, Final residual = 4.17651e-08, No Iterations 0
smoothSolver:  Solving for Uy, Initial residual = 1.19705e-07, Final residual = 1.19705e-07, No Iterations 0
DICPCG:  Solving for p, Initial residual = 5.33862e-07, Final residual = 5.33862e-07, No Iterations 0
time step continuity errors : sum local = 4.53648e-10, global = 1.927e-20, cumulative = 5.01714e-18
DICPCG:  Solving for p, Initial residual = 8.30016e-07, Final residual = 8.30016e-07, No Iterations 0
time step continuity errors : sum local = 7.05344e-10, global = -1.22502e-20, cumulative = 5.00489e-18
ExecutionTime = 4.7 s  ClockTime = 4 s

Time = 9.885

Courant Number mean: 0.0218505 max: 0.0849654
smoothSolver:  Solving for Ux, Initial residual = 1.99508e-08, Final residual = 1.99508e-08, No Iterations 0
smoothSolver:  Solving for Uy, Initial residual = 5.69282e-08, Final residual = 5.69282e-08, No Iterations 0
DICPCG:  Solving for p, Initial residual = 1.06019e-06, Final residual = 6.69269e-08, No Iterations 1
time step continuity errors : sum local = 5.68848e-11, global = -7.3533e-20, cumulative = 4.93136e-18
DICPCG:  Solving for p, Initial residual = 4.05756e-07, Final residual = 4.05756e-07, No Iterations 0
time step continuity errors : sum local = 3.44839e-10, global = 1.00628e-19, cumulative = 5.03198e-18
ExecutionTime = 4.7 s  ClockTime = 4 s

Time = 9.89

Courant Number mean: 0.0218505 max: 0.0849654
smoothSolver:  Solving for Ux, Initial residual = 2.4178e-08, Final residual = 2.4178e-08, No Iterations 0
smoothSolver:  Solving for Uy, Initial residual = 6.92125e-08, Final residual = 6.92125e-08, No Iterations 0
DICPCG:  Solving for p, Initial residual = 7.03778e-07, Final residual = 7.03778e-07, No Iterations 0
time step continuity errors : sum local = 5.98122e-10, global = 6.82603e-20, cumulative = 5.10024e-18
DICPCG:  Solving for p, Initial residual = 8.7753e-07, Final residual = 8.7753e-07, No Iterations 0
time step continuity errors : sum local = 7.45789e-10, global = -3.86459e-21, cumulative = 5.09638e-18
ExecutionTime = 4.7 s  ClockTime = 4 s

Time = 9.895

Courant Number mean: 0.0218505 max: 0.0849654
smoothSolver:  Solving for Ux, Initial residual = 1.17109e-08, Final residual = 1.17109e-08, No Iterations 0
smoothSolver:  Solving for Uy, Initial residual = 3.33723e-08, Final residual = 3.33723e-08, No Iterations 0
DICPCG:  Solving for p, Initial residual = 1.01325e-06, Final residual = 6.37014e-08, No Iterations 1
time step continuity errors : sum local = 5.42133e-11, global = -1.12062e-19, cumulative = 4.98432e-18
DICPCG:  Solving for p, Initial residual = 4.36421e-07, Final residual = 4.36421e-07, No Iterations 0
time step continuity errors : sum local = 3.70863e-10, global = -1.14805e-19, cumulative = 4.86951e-18
ExecutionTime = 4.7 s  ClockTime = 4 s

Time = 9.9

Courant Number mean: 0.0218505 max: 0.0849654
smoothSolver:  Solving for Ux, Initial residual = 2.63511e-08, Final residual = 2.63511e-08, No Iterations 0
smoothSolver:  Solving for Uy, Initial residual = 7.53673e-08, Final residual = 7.53673e-08, No Iterations 0
DICPCG:  Solving for p, Initial residual = 7.59587e-07, Final residual = 7.59587e-07, No Iterations 0
time step continuity errors : sum local = 6.45483e-10, global = -4.99961e-20, cumulative = 4.81952e-18
DICPCG:  Solving for p, Initial residual = 9.49898e-07, Final residual = 9.49898e-07, No Iterations 0
time step continuity errors : sum local = 8.07224e-10, global = -1.67183e-20, cumulative = 4.8028e-18
ExecutionTime = 4.7 s  ClockTime = 4 s

Time = 9.905

Courant Number mean: 0.0218505 max: 0.0849654
smoothSolver:  Solving for Ux, Initial residual = 1.28164e-08, Final residual = 1.28164e-08, No Iterations 0
smoothSolver:  Solving for Uy, Initial residual = 3.64934e-08, Final residual = 3.64934e-08, No Iterations 0
DICPCG:  Solving for p, Initial residual = 1.09827e-06, Final residual = 6.9105e-08, No Iterations 1
time step continuity errors : sum local = 5.87288e-11, global = -5.04196e-20, cumulative = 4.75238e-18
DICPCG:  Solving for p, Initial residual = 4.75361e-07, Final residual = 4.75361e-07, No Iterations 0
time step continuity errors : sum local = 4.04005e-10, global = -2.0657e-20, cumulative = 4.73172e-18
ExecutionTime = 4.71 s  ClockTime = 4 s

Time = 9.91

Courant Number mean: 0.0218505 max: 0.0849654
smoothSolver:  Solving for Ux, Initial residual = 2.8819e-08, Final residual = 2.8819e-08, No Iterations 0
smoothSolver:  Solving for Uy, Initial residual = 8.23667e-08, Final residual = 8.23667e-08, No Iterations 0
DICPCG:  Solving for p, Initial residual = 8.27459e-07, Final residual = 8.27459e-07, No Iterations 0
time step continuity errors : sum local = 7.03246e-10, global = 7.67518e-20, cumulative = 4.80847e-18
DICPCG:  Solving for p, Initial residual = 1.03555e-06, Final residual = 6.52804e-08, No Iterations 1
time step continuity errors : sum local = 5.556e-11, global = -6.36333e-21, cumulative = 4.80211e-18
ExecutionTime = 4.71 s  ClockTime = 4 s

Time = 9.915

Courant Number mean: 0.0218505 max: 0.0849654
smoothSolver:  Solving for Ux, Initial residual = 3.33754e-08, Final residual = 3.33754e-08, No Iterations 0
smoothSolver:  Solving for Uy, Initial residual = 9.56311e-08, Final residual = 9.56311e-08, No Iterations 0
DICPCG:  Solving for p, Initial residual = 4.33596e-07, Final residual = 4.33596e-07, No Iterations 0
time step continuity errors : sum local = 3.68429e-10, global = 1.26526e-20, cumulative = 4.81476e-18
DICPCG:  Solving for p, Initial residual = 6.69523e-07, Final residual = 6.69523e-07, No Iterations 0
time step continuity errors : sum local = 5.68934e-10, global = -1.04079e-20, cumulative = 4.80435e-18
ExecutionTime = 4.71 s  ClockTime = 4 s

Time = 9.92

Courant Number mean: 0.0218505 max: 0.0849654
smoothSolver:  Solving for Ux, Initial residual = 1.57145e-08, Final residual = 1.57145e-08, No Iterations 0
smoothSolver:  Solving for Uy, Initial residual = 4.48851e-08, Final residual = 4.48851e-08, No Iterations 0
DICPCG:  Solving for p, Initial residual = 8.5148e-07, Final residual = 8.5148e-07, No Iterations 0
time step continuity errors : sum local = 7.23576e-10, global = 3.97047e-21, cumulative = 4.80832e-18
DICPCG:  Solving for p, Initial residual = 9.63333e-07, Final residual = 9.63333e-07, No Iterations 0
time step continuity errors : sum local = 8.18638e-10, global = 2.32934e-21, cumulative = 4.81065e-18
ExecutionTime = 4.71 s  ClockTime = 4 s

Time = 9.925

Courant Number mean: 0.0218505 max: 0.0849654
smoothSolver:  Solving for Ux, Initial residual = 7.78521e-09, Final residual = 7.78521e-09, No Iterations 0
smoothSolver:  Solving for Uy, Initial residual = 2.21198e-08, Final residual = 2.21198e-08, No Iterations 0
DICPCG:  Solving for p, Initial residual = 1.05024e-06, Final residual = 6.62684e-08, No Iterations 1
time step continuity errors : sum local = 5.63248e-11, global = -7.25801e-20, cumulative = 4.73807e-18
DICPCG:  Solving for p, Initial residual = 4.86676e-07, Final residual = 4.86676e-07, No Iterations 0
time step continuity errors : sum local = 4.13628e-10, global = 5.24102e-21, cumulative = 4.74331e-18
ExecutionTime = 4.72 s  ClockTime = 4 s

Time = 9.93

Courant Number mean: 0.0218505 max: 0.0849654
smoothSolver:  Solving for Ux, Initial residual = 2.98098e-08, Final residual = 2.98098e-08, No Iterations 0
smoothSolver:  Solving for Uy, Initial residual = 8.51776e-08, Final residual = 8.51776e-08, No Iterations 0
DICPCG:  Solving for p, Initial residual = 8.48865e-07, Final residual = 8.48865e-07, No Iterations 0
time step continuity errors : sum local = 7.21445e-10, global = -4.6068e-20, cumulative = 4.69725e-18
DICPCG:  Solving for p, Initial residual = 1.06366e-06, Final residual = 6.71845e-08, No Iterations 1
time step continuity errors : sum local = 5.71789e-11, global = -6.56556e-20, cumulative = 4.63159e-18
ExecutionTime = 4.72 s  ClockTime = 4 s

Time = 9.935

Courant Number mean: 0.0218505 max: 0.0849654
smoothSolver:  Solving for Ux, Initial residual = 3.44927e-08, Final residual = 3.44927e-08, No Iterations 0
smoothSolver:  Solving for Uy, Initial residual = 9.8864e-08, Final residual = 9.8864e-08, No Iterations 0
DICPCG:  Solving for p, Initial residual = 4.46737e-07, Final residual = 4.46737e-07, No Iterations 0
time step continuity errors : sum local = 3.79596e-10, global = -7.94623e-20, cumulative = 4.55213e-18
DICPCG:  Solving for p, Initial residual = 6.89998e-07, Final residual = 6.89998e-07, No Iterations 0
time step continuity errors : sum local = 5.86335e-10, global = 6.58568e-21, cumulative = 4.55871e-18
ExecutionTime = 4.72 s  ClockTime = 4 s

Time = 9.94

Courant Number mean: 0.0218505 max: 0.0849654
smoothSolver:  Solving for Ux, Initial residual = 1.63021e-08, Final residual = 1.63021e-08, No Iterations 0
smoothSolver:  Solving for Uy, Initial residual = 4.65528e-08, Final residual = 4.65528e-08, No Iterations 0
DICPCG:  Solving for p, Initial residual = 8.7805e-07, Final residual = 8.7805e-07, No Iterations 0
time step continuity errors : sum local = 7.46157e-10, global = 6.06476e-20, cumulative = 4.61936e-18
DICPCG:  Solving for p, Initial residual = 9.93725e-07, Final residual = 9.93725e-07, No Iterations 0
time step continuity errors : sum local = 8.44467e-10, global = -3.94823e-20, cumulative = 4.57988e-18
ExecutionTime = 4.72 s  ClockTime = 4 s

Time = 9.945

Courant Number mean: 0.0218505 max: 0.0849654
smoothSolver:  Solving for Ux, Initial residual = 8.11277e-09, Final residual = 8.11277e-09, No Iterations 0
smoothSolver:  Solving for Uy, Initial residual = 2.30517e-08, Final residual = 2.30517e-08, No Iterations 0
DICPCG:  Solving for p, Initial residual = 1.08376e-06, Final residual = 6.8718e-08, No Iterations 1
time step continuity errors : sum local = 5.84079e-11, global = 4.2574e-20, cumulative = 4.62245e-18
DICPCG:  Solving for p, Initial residual = 5.04067e-07, Final residual = 5.04067e-07, No Iterations 0
time step continuity errors : sum local = 4.2841e-10, global = -3.67506e-20, cumulative = 4.5857e-18
ExecutionTime = 4.73 s  ClockTime = 4 s

Time = 9.95

Courant Number mean: 0.0218505 max: 0.0849654
smoothSolver:  Solving for Ux, Initial residual = 3.10299e-08, Final residual = 3.10299e-08, No Iterations 0
smoothSolver:  Solving for Uy, Initial residual = 8.86443e-08, Final residual = 8.86443e-08, No Iterations 0
DICPCG:  Solving for p, Initial residual = 8.79169e-07, Final residual = 8.79169e-07, No Iterations 0
time step continuity errors : sum local = 7.47201e-10, global = 1.32529e-19, cumulative = 4.71823e-18
DICPCG:  Solving for p, Initial residual = 1.10224e-06, Final residual = 7.01461e-08, No Iterations 1
time step continuity errors : sum local = 5.96961e-11, global = 1.94288e-20, cumulative = 4.73766e-18
ExecutionTime = 4.73 s  ClockTime = 4 s

Time = 9.955

Courant Number mean: 0.0218505 max: 0.0849654
smoothSolver:  Solving for Ux, Initial residual = 3.596e-08, Final residual = 3.596e-08, No Iterations 0
smoothSolver:  Solving for Uy, Initial residual = 1.03069e-07, Final residual = 1.03069e-07, No Iterations 0
DICPCG:  Solving for p, Initial residual = 4.64357e-07, Final residual = 4.64357e-07, No Iterations 0
time step continuity errors : sum local = 3.94567e-10, global = 1.28114e-21, cumulative = 4.73894e-18
DICPCG:  Solving for p, Initial residual = 7.17294e-07, Final residual = 7.17294e-07, No Iterations 0
time step continuity errors : sum local = 6.09533e-10, global = 7.57036e-21, cumulative = 4.74651e-18
ExecutionTime = 4.73 s  ClockTime = 4 s

Time = 9.96

Courant Number mean: 0.0218505 max: 0.0849654
smoothSolver:  Solving for Ux, Initial residual = 1.70352e-08, Final residual = 1.70352e-08, No Iterations 0
smoothSolver:  Solving for Uy, Initial residual = 4.86369e-08, Final residual = 4.86369e-08, No Iterations 0
DICPCG:  Solving for p, Initial residual = 9.13122e-07, Final residual = 9.13122e-07, No Iterations 0
time step continuity errors : sum local = 7.75964e-10, global = 4.85138e-20, cumulative = 4.79503e-18
DICPCG:  Solving for p, Initial residual = 1.03365e-06, Final residual = 6.55915e-08, No Iterations 1
time step continuity errors : sum local = 5.57429e-11, global = -2.14935e-21, cumulative = 4.79288e-18
ExecutionTime = 4.73 s  ClockTime = 4 s

Time = 9.965

Courant Number mean: 0.0218505 max: 0.0849654
smoothSolver:  Solving for Ux, Initial residual = 3.92708e-08, Final residual = 3.92708e-08, No Iterations 0
smoothSolver:  Solving for Uy, Initial residual = 1.12541e-07, Final residual = 1.12541e-07, No Iterations 0
DICPCG:  Solving for p, Initial residual = 5.01055e-07, Final residual = 5.01055e-07, No Iterations 0
time step continuity errors : sum local = 4.25838e-10, global = 8.10611e-20, cumulative = 4.87394e-18
DICPCG:  Solving for p, Initial residual = 7.78504e-07, Final residual = 7.78504e-07, No Iterations 0
time step continuity errors : sum local = 6.61637e-10, global = 9.17654e-20, cumulative = 4.9657e-18
ExecutionTime = 4.73 s  ClockTime = 4 s

Time = 9.97

Courant Number mean: 0.0218505 max: 0.0849654
smoothSolver:  Solving for Ux, Initial residual = 1.86844e-08, Final residual = 1.86844e-08, No Iterations 0
smoothSolver:  Solving for Uy, Initial residual = 5.33364e-08, Final residual = 5.33364e-08, No Iterations 0
DICPCG:  Solving for p, Initial residual = 9.93896e-07, Final residual = 9.93896e-07, No Iterations 0
time step continuity errors : sum local = 8.44694e-10, global = 2.56545e-20, cumulative = 4.99136e-18
DICPCG:  Solving for p, Initial residual = 1.12674e-06, Final residual = 7.12994e-08, No Iterations 1
time step continuity errors : sum local = 6.06688e-11, global = 4.38869e-20, cumulative = 5.03524e-18
ExecutionTime = 4.74 s  ClockTime = 4 s

Time = 9.975

Courant Number mean: 0.0218505 max: 0.0849654
smoothSolver:  Solving for Ux, Initial residual = 4.29748e-08, Final residual = 4.29748e-08, No Iterations 0
smoothSolver:  Solving for Uy, Initial residual = 1.23166e-07, Final residual = 1.23166e-07, No Iterations 0
DICPCG:  Solving for p, Initial residual = 5.48024e-07, Final residual = 5.48024e-07, No Iterations 0
time step continuity errors : sum local = 4.65681e-10, global = -3.55013e-20, cumulative = 4.99974e-18
DICPCG:  Solving for p, Initial residual = 8.52222e-07, Final residual = 8.52222e-07, No Iterations 0
time step continuity errors : sum local = 7.24213e-10, global = -1.10908e-19, cumulative = 4.88883e-18
ExecutionTime = 4.74 s  ClockTime = 4 s

Time = 9.98

Courant Number mean: 0.0218505 max: 0.0849654
smoothSolver:  Solving for Ux, Initial residual = 2.05611e-08, Final residual = 2.05611e-08, No Iterations 0
smoothSolver:  Solving for Uy, Initial residual = 5.86675e-08, Final residual = 5.86675e-08, No Iterations 0
DICPCG:  Solving for p, Initial residual = 1.08867e-06, Final residual = 6.9037e-08, No Iterations 1
time step continuity errors : sum local = 5.86787e-11, global = 6.76038e-20, cumulative = 4.95644e-18
DICPCG:  Solving for p, Initial residual = 4.17591e-07, Final residual = 4.17591e-07, No Iterations 0
time step continuity errors : sum local = 3.54896e-10, global = 8.34857e-20, cumulative = 5.03992e-18
ExecutionTime = 4.74 s  ClockTime = 4 s

Time = 9.985

Courant Number mean: 0.0218505 max: 0.0849654
smoothSolver:  Solving for Ux, Initial residual = 2.49439e-08, Final residual = 2.49439e-08, No Iterations 0
smoothSolver:  Solving for Uy, Initial residual = 7.13856e-08, Final residual = 7.13856e-08, No Iterations 0
DICPCG:  Solving for p, Initial residual = 7.24054e-07, Final residual = 7.24054e-07, No Iterations 0
time step continuity errors : sum local = 6.15353e-10, global = -1.80736e-20, cumulative = 5.02185e-18
DICPCG:  Solving for p, Initial residual = 9.03019e-07, Final residual = 9.03019e-07, No Iterations 0
time step continuity errors : sum local = 7.67452e-10, global = 7.48777e-20, cumulative = 5.09673e-18
ExecutionTime = 4.74 s  ClockTime = 4 s

Time = 9.99

Courant Number mean: 0.0218505 max: 0.0849654
smoothSolver:  Solving for Ux, Initial residual = 1.20984e-08, Final residual = 1.20984e-08, No Iterations 0
smoothSolver:  Solving for Uy, Initial residual = 3.4466e-08, Final residual = 3.4466e-08, No Iterations 0
DICPCG:  Solving for p, Initial residual = 1.04276e-06, Final residual = 6.57965e-08, No Iterations 1
time step continuity errors : sum local = 5.59919e-11, global = 3.28755e-20, cumulative = 5.1296e-18
DICPCG:  Solving for p, Initial residual = 4.4996e-07, Final residual = 4.4996e-07, No Iterations 0
time step continuity errors : sum local = 3.82363e-10, global = 6.00652e-20, cumulative = 5.18967e-18
ExecutionTime = 4.75 s  ClockTime = 4 s

Time = 9.995

Courant Number mean: 0.0218505 max: 0.0849654
smoothSolver:  Solving for Ux, Initial residual = 2.72328e-08, Final residual = 2.72328e-08, No Iterations 0
smoothSolver:  Solving for Uy, Initial residual = 7.78668e-08, Final residual = 7.78668e-08, No Iterations 0
DICPCG:  Solving for p, Initial residual = 7.82947e-07, Final residual = 7.82947e-07, No Iterations 0
time step continuity errors : sum local = 6.65338e-10, global = 4.70633e-20, cumulative = 5.23673e-18
DICPCG:  Solving for p, Initial residual = 9.79247e-07, Final residual = 9.79247e-07, No Iterations 0
time step continuity errors : sum local = 8.32169e-10, global = -1.28029e-19, cumulative = 5.1087e-18
ExecutionTime = 4.75 s  ClockTime = 4 s

Time = 10

Courant Number mean: 0.0218505 max: 0.0849654
smoothSolver:  Solving for Ux, Initial residual = 1.326e-08, Final residual = 1.326e-08, No Iterations 0
smoothSolver:  Solving for Uy, Initial residual = 3.7748e-08, Final residual = 3.7748e-08, No Iterations 0
DICPCG:  Solving for p, Initial residual = 1.13237e-06, Final residual = 7.14823e-08, No Iterations 1
time step continuity errors : sum local = 6.07518e-11, global = 9.46559e-21, cumulative = 5.11817e-18
DICPCG:  Solving for p, Initial residual = 4.90896e-07, Final residual = 4.90896e-07, No Iterations 0
time step continuity errors : sum local = 4.17202e-10, global = 9.61171e-20, cumulative = 5.21429e-18
ExecutionTime = 4.76 s  ClockTime = 4 s

End

